<?xml version="1.0" encoding="UTF-8"?>

<!-- generated on 2025-02-22 16:43:14.335138 by osmWebWizard.py v1_20_0+0000-96efa4d36d6
<configuration>
    <net-file value="\\wsl.localhost\Ubuntu\home\ramm\sumo\tools\2025-02-22-16-39-31\osm.net.xml.gz"/>
    <output-trip-file value="\\wsl.localhost\Ubuntu\home\ramm\sumo\tools\2025-02-22-16-39-31\osm.passenger.trips.xml"/>
    <route-file value="\\wsl.localhost\Ubuntu\home\ramm\sumo\tools\2025-02-22-16-39-31\osm.passenger.rou.xml"/>
    <prefix value="veh"/>
    <trip-attributes value="departLane=&quot;best&quot;"/>
    <fringe-start-attributes value="departSpeed=&quot;max&quot;"/>
    <vehicle-class value="passenger"/>
    <lanes value="True"/>
    <fringe-factor value="5"/>
    <allow-fringe.min-length value="1000.0"/>
    <via-edge-types value="highway.motorway,highway.motorway_link,highway.trunk_link,highway.primary_link,highway.secondary_link,highway.tertiary_link"/>
    <min-distance value="300.0"/>
    <min-distance.fringe value="10.0"/>
    <remove-loops value="True"/>
    <validate value="True"/>
    <insertion-density value="12.0"/>
</configuration>
-->

<!-- generated on 2025-02-22 16:42:01 by Eclipse SUMO duarouter Version 1.22.0
<duarouterConfiguration xmlns:xsi="http://www.w3.org/2001/XMLSchema-instance" xsi:noNamespaceSchemaLocation="http://sumo.dlr.de/xsd/duarouterConfiguration.xsd">

    <input>
        <net-file value="\\wsl.localhost\Ubuntu\home\ramm\sumo\tools\2025-02-22-16-39-31\osm.net.xml.gz"/>
        <route-files value="\\wsl.localhost\Ubuntu\home\ramm\sumo\tools\2025-02-22-16-39-31\osm.passenger.trips.xml"/>
    </input>

    <output>
        <output-file value="\\wsl.localhost\Ubuntu\home\ramm\sumo\tools\2025-02-22-16-39-31\osm.passenger.trips.xml.tmp"/>
        <alternatives-output value="NUL"/>
        <write-trips value="true"/>
    </output>

    <processing>
        <remove-loops value="true"/>
    </processing>

    <time>
        <begin value="0.0"/>
        <end value="3600.0"/>
    </time>

    <report>
        <no-warnings value="true"/>
        <ignore-errors value="true"/>
        <no-step-log value="true"/>
    </report>

</duarouterConfiguration>
-->

<routes xmlns:xsi="http://www.w3.org/2001/XMLSchema-instance" xsi:noNamespaceSchemaLocation="http://sumo.dlr.de/xsd/routes_file.xsd">
    <vType id="veh_passenger" vClass="passenger"/>
    <trip id="veh0" type="veh_passenger" depart="0.00" departLane="best" departSpeed="max" from="10237829#0" to="10225905#40"/>
    <trip id="veh1" type="veh_passenger" depart="0.24" departLane="best" from="-10248182" to="-10246388#6"/>
    <trip id="veh2" type="veh_passenger" depart="0.48" departLane="best" from="10247591#1" to="10243588#2"/>
    <trip id="veh3" type="veh_passenger" depart="0.72" departLane="best" from="531480994#1" to="-10232468#10"/>
    <trip id="veh4" type="veh_passenger" depart="0.96" departLane="best" from="-599894825#1" to="-10226309#0"/>
    <trip id="veh5" type="veh_passenger" depart="1.20" departLane="best" from="-10242891#2" to="10229321#0"/>
    <trip id="veh6" type="veh_passenger" depart="1.44" departLane="best" from="-10225905#19" to="10243486#4"/>
    <trip id="veh7" type="veh_passenger" depart="1.68" departLane="best" from="10238800#0" to="10233667#1"/>
    <trip id="veh8" type="veh_passenger" depart="1.92" departLane="best" departSpeed="max" from="-10243059#1" to="-10237317#7"/>
    <trip id="veh9" type="veh_passenger" depart="2.16" departLane="best" from="-1326183435#0" to="-10224263#14"/>
    <trip id="veh11" type="veh_passenger" depart="2.64" departLane="best" from="1360499680#1" to="-10239203#6"/>
    <trip id="veh12" type="veh_passenger" depart="2.88" departLane="best" from="-791097219#4" to="339707393#0"/>
    <trip id="veh13" type="veh_passenger" depart="3.12" departLane="best" from="-10232468#9" to="10234240#26"/>
    <trip id="veh14" type="veh_passenger" depart="3.35" departLane="best" from="-28223204#1" to="10237978#2"/>
    <trip id="veh15" type="veh_passenger" depart="3.59" departLane="best" departSpeed="max" from="1303193252" to="10248720#3"/>
    <trip id="veh16" type="veh_passenger" depart="3.83" departLane="best" from="10226943#23" to="81814344#4"/>
    <trip id="veh17" type="veh_passenger" depart="4.07" departLane="best" departSpeed="max" from="-339707393#1" to="10234323#6"/>
    <trip id="veh18" type="veh_passenger" depart="4.31" departLane="best" from="229715478#2" to="10238951#9"/>
    <trip id="veh19" type="veh_passenger" depart="4.55" departLane="best" from="-33064403#3" to="10236172#14"/>
    <trip id="veh20" type="veh_passenger" depart="4.79" departLane="best" from="10244014#2" to="-10228431#24"/>
    <trip id="veh21" type="veh_passenger" depart="5.03" departLane="best" from="-10243585#4" to="1267253430#1"/>
    <trip id="veh22" type="veh_passenger" depart="5.27" departLane="best" from="10231331#11" to="-10247098#1"/>
    <trip id="veh23" type="veh_passenger" depart="5.51" departLane="best" from="10234095#4" to="-1210604234#2"/>
    <trip id="veh24" type="veh_passenger" depart="5.75" departLane="best" from="-10237618#0" to="-531543285#0"/>
    <trip id="veh25" type="veh_passenger" depart="5.99" departLane="best" from="-32590752#2" to="10244730#5"/>
    <trip id="veh26" type="veh_passenger" depart="6.23" departLane="best" departSpeed="max" from="-10247215#2" to="745535756"/>
    <trip id="veh27" type="veh_passenger" depart="6.47" departLane="best" from="10238631#4" to="10238358#12"/>
    <trip id="veh28" type="veh_passenger" depart="6.71" departLane="best" from="-10239002#2" to="10248697#1"/>
    <trip id="veh29" type="veh_passenger" depart="6.95" departLane="best" from="-10238475#6" to="626428325#0"/>
    <trip id="veh30" type="veh_passenger" depart="7.19" departLane="best" from="-919107643#21" to="10240397#3"/>
    <trip id="veh31" type="veh_passenger" depart="7.43" departLane="best" from="-10229823#5" to="10244471#1"/>
    <trip id="veh32" type="veh_passenger" depart="7.67" departLane="best" from="231365239#10" to="1212643309#1"/>
    <trip id="veh33" type="veh_passenger" depart="7.91" departLane="best" from="-10243684#1" to="-10226453#0"/>
    <trip id="veh34" type="veh_passenger" depart="8.15" departLane="best" from="1210607051#1" to="-1103213876#2"/>
    <trip id="veh35" type="veh_passenger" depart="8.39" departLane="best" from="-10241913#3" to="-753577462#9"/>
    <trip id="veh36" type="veh_passenger" depart="8.63" departLane="best" from="-413212997#5" to="-231243098#26"/>
    <trip id="veh37" type="veh_passenger" depart="8.87" departLane="best" from="10239225#2" to="-733392812#0"/>
    <trip id="veh38" type="veh_passenger" depart="9.11" departLane="best" from="-626428326#5" to="-10224730#1"/>
    <trip id="veh39" type="veh_passenger" depart="9.35" departLane="best" from="-10247090#2" to="-10248803#0"/>
    <trip id="veh40" type="veh_passenger" depart="9.58" departLane="best" from="10230070" to="1103204104#1"/>
    <trip id="veh41" type="veh_passenger" depart="9.82" departLane="best" from="-10232216#1" to="561623007#8"/>
    <trip id="veh42" type="veh_passenger" depart="10.06" departLane="best" from="468892539#2" to="-10246098#17"/>
    <trip id="veh43" type="veh_passenger" depart="10.30" departLane="best" from="-94456274#24" to="-10229703#1"/>
    <trip id="veh44" type="veh_passenger" depart="10.54" departLane="best" departSpeed="max" from="-10232223#1" to="-10228657#1"/>
    <trip id="veh45" type="veh_passenger" depart="10.78" departLane="best" from="-10234593#8" to="10239628#1"/>
    <trip id="veh46" type="veh_passenger" depart="11.02" departLane="best" from="1213751802#11" to="-82249845#6"/>
    <trip id="veh47" type="veh_passenger" depart="11.26" departLane="best" from="-10229598#9" to="637274110#1"/>
    <trip id="veh48" type="veh_passenger" depart="11.50" departLane="best" from="925332637#3" to="10231438#5"/>
    <trip id="veh49" type="veh_passenger" depart="11.74" departLane="best" from="-81809403" to="357337101#1"/>
    <trip id="veh50" type="veh_passenger" depart="11.98" departLane="best" from="-10224585" to="10247825#3"/>
    <trip id="veh51" type="veh_passenger" depart="12.22" departLane="best" departSpeed="max" from="10241169" to="10232153#1"/>
    <trip id="veh52" type="veh_passenger" depart="12.46" departLane="best" departSpeed="max" from="-10247215#2" to="10240444#1"/>
    <trip id="veh53" type="veh_passenger" depart="12.70" departLane="best" from="-10234675#0" to="-919107643#18"/>
    <trip id="veh54" type="veh_passenger" depart="12.94" departLane="best" from="-765853000#0" to="-790916861"/>
    <trip id="veh55" type="veh_passenger" depart="13.18" departLane="best" from="41089549#4" to="1103204105#2"/>
    <trip id="veh56" type="veh_passenger" depart="13.42" departLane="best" from="-10217092#1" to="10241083#12"/>
    <trip id="veh57" type="veh_passenger" depart="13.66" departLane="best" from="600788076#7" to="-413212997#0"/>
    <trip id="veh58" type="veh_passenger" depart="13.90" departLane="best" from="-1103204104#0" to="10240370#1"/>
    <trip id="veh59" type="veh_passenger" depart="14.14" departLane="best" from="-10235158#4" to="-10238951#14"/>
    <trip id="veh60" type="veh_passenger" depart="14.38" departLane="best" departSpeed="max" from="1053662154#0" to="10232490#1"/>
    <trip id="veh61" type="veh_passenger" depart="14.62" departLane="best" from="1103213887#6" to="10231686#0"/>
    <trip id="veh62" type="veh_passenger" depart="14.86" departLane="best" from="10187180#1" to="269663726#3"/>
    <trip id="veh63" type="veh_passenger" depart="15.10" departLane="best" departSpeed="max" from="-10225368" to="705606770#19"/>
    <trip id="veh64" type="veh_passenger" depart="15.34" departLane="best" from="413237544#52" to="231365239#5"/>
    <trip id="veh65" type="veh_passenger" depart="15.58" departLane="best" from="-1103213888#1" to="-10229469#3"/>
    <trip id="veh66" type="veh_passenger" depart="15.82" departLane="best" from="-413237544#3" to="765847718#1"/>
    <trip id="veh67" type="veh_passenger" depart="16.05" departLane="best" departSpeed="max" from="-10231792#1" to="10226778#11"/>
    <trip id="veh68" type="veh_passenger" depart="16.29" departLane="best" from="-1103204096#2" to="-10237273"/>
    <trip id="veh69" type="veh_passenger" depart="16.53" departLane="best" from="-83944492#2" to="10234240#17"/>
    <trip id="veh70" type="veh_passenger" depart="16.77" departLane="best" from="10247098#0" to="413237544#25"/>
    <trip id="veh71" type="veh_passenger" depart="17.01" departLane="best" from="599896882#1" to="-10245125#0"/>
    <trip id="veh72" type="veh_passenger" depart="17.25" departLane="best" from="-10228004#0" to="-10248725#0"/>
    <trip id="veh73" type="veh_passenger" depart="17.49" departLane="best" from="-10241094#16" to="229715468#7"/>
    <trip id="veh74" type="veh_passenger" depart="17.73" departLane="best" from="-925332627" to="10241108#1"/>
    <trip id="veh75" type="veh_passenger" depart="17.97" departLane="best" departSpeed="max" from="-705606796" to="10230250"/>
    <trip id="veh76" type="veh_passenger" depart="18.21" departLane="best" from="-10235352" to="10246456#5"/>
    <trip id="veh77" type="veh_passenger" depart="18.45" departLane="best" from="-1352502204" to="-10237317#12"/>
    <trip id="veh78" type="veh_passenger" depart="18.69" departLane="best" departSpeed="max" from="-10243775#1" to="-10246108#8"/>
    <trip id="veh79" type="veh_passenger" depart="18.93" departLane="best" from="10230155#3" to="10239796#8"/>
    <trip id="veh80" type="veh_passenger" depart="19.17" departLane="best" departSpeed="max" from="-10243681#2" to="599840849#1-AddedOffRampEdge"/>
    <trip id="veh81" type="veh_passenger" depart="19.41" departLane="best" from="32836396#2" to="-10230692#4"/>
    <trip id="veh82" type="veh_passenger" depart="19.65" departLane="best" departSpeed="max" from="-10244666" to="10242965#1"/>
    <trip id="veh83" type="veh_passenger" depart="19.89" departLane="best" from="-10242193#5" to="10237361#3"/>
    <trip id="veh84" type="veh_passenger" depart="20.13" departLane="best" from="706444377#2" to="-10235825#0"/>
    <trip id="veh85" type="veh_passenger" depart="20.37" departLane="best" from="-82249844#1" to="1264402095#10"/>
    <trip id="veh86" type="veh_passenger" depart="20.61" departLane="best" departSpeed="max" from="1303193255" to="-10242150#1"/>
    <trip id="veh87" type="veh_passenger" depart="20.85" departLane="best" from="-10233408#8" to="-886357237#0"/>
    <trip id="veh88" type="veh_passenger" depart="21.09" departLane="best" from="-60964054#0" to="10225528"/>
    <trip id="veh89" type="veh_passenger" depart="21.33" departLane="best" from="10246771#0" to="10243486#1"/>
    <trip id="veh90" type="veh_passenger" depart="21.57" departLane="best" from="882705697" to="-10234323#9"/>
    <trip id="veh91" type="veh_passenger" depart="21.81" departLane="best" from="-525997673#1" to="-350997060#0"/>
    <trip id="veh92" type="veh_passenger" depart="22.05" departLane="best" from="-33064403#2" to="-10248881#0"/>
    <trip id="veh93" type="veh_passenger" depart="22.28" departLane="best" from="10240367#25" to="10211015#10"/>
    <trip id="veh94" type="veh_passenger" depart="22.52" departLane="best" from="-599894825#1" to="-1210604241"/>
    <trip id="veh95" type="veh_passenger" depart="22.76" departLane="best" from="10246073#0" to="684673684#0"/>
    <trip id="veh96" type="veh_passenger" depart="23.00" departLane="best" departSpeed="max" from="-744456762" to="359388632#3"/>
    <trip id="veh97" type="veh_passenger" depart="23.24" departLane="best" departSpeed="max" from="10229279#0" to="10228980#1"/>
    <trip id="veh98" type="veh_passenger" depart="23.48" departLane="best" departSpeed="max" from="962973823" to="28223223#1"/>
    <trip id="veh99" type="veh_passenger" depart="23.72" departLane="best" from="81609156#3" to="-686154730#2"/>
    <trip id="veh100" type="veh_passenger" depart="23.96" departLane="best" departSpeed="max" from="28223368" to="-10239925#1"/>
    <trip id="veh101" type="veh_passenger" depart="24.20" departLane="best" from="-919107643#8" to="-10245492#3"/>
    <trip id="veh102" type="veh_passenger" depart="24.44" departLane="best" departSpeed="max" from="-474487553#4" to="10229598#17"/>
    <trip id="veh103" type="veh_passenger" depart="24.68" departLane="best" from="-343802457#0" to="-886357240#0"/>
    <trip id="veh104" type="veh_passenger" depart="24.92" departLane="best" from="10247110#0" to="1264279891#1"/>
    <trip id="veh105" type="veh_passenger" depart="25.16" departLane="best" from="626430917#2" to="-82250989#2"/>
    <trip id="veh106" type="veh_passenger" depart="25.40" departLane="best" from="-791097219#8" to="-925332637#1"/>
    <trip id="veh107" type="veh_passenger" depart="25.64" departLane="best" from="10229697#0" to="10247681#1"/>
    <trip id="veh108" type="veh_passenger" depart="25.88" departLane="best" from="10237863#2" to="1303193253#3"/>
    <trip id="veh109" type="veh_passenger" depart="26.12" departLane="best" from="81460976#5" to="10236295#1"/>
    <trip id="veh110" type="veh_passenger" depart="26.36" departLane="best" from="-10228458#9" to="1036897386#1"/>
    <trip id="veh111" type="veh_passenger" depart="26.60" departLane="best" from="-10229209#16" to="10236886#6"/>
    <trip id="veh112" type="veh_passenger" depart="26.84" departLane="best" from="10224285#2" to="32836449#1"/>
    <trip id="veh113" type="veh_passenger" depart="27.08" departLane="best" from="-10238030#1" to="793138953"/>
    <trip id="veh114" type="veh_passenger" depart="27.32" departLane="best" from="-10231331#22" to="10241602#19"/>
    <trip id="veh115" type="veh_passenger" depart="27.56" departLane="best" from="-10234240#25" to="10243522#2"/>
    <trip id="veh116" type="veh_passenger" depart="27.80" departLane="best" from="-10244436#4" to="-10236102#7"/>
    <trip id="veh117" type="veh_passenger" depart="28.04" departLane="best" from="525997674#1" to="-10248725#3"/>
    <trip id="veh118" type="veh_passenger" depart="28.28" departLane="best" from="10234240#1" to="10239004#1"/>
    <trip id="veh119" type="veh_passenger" depart="28.52" departLane="best" from="-568219148#11" to="10236815"/>
    <trip id="veh120" type="veh_passenger" depart="28.75" departLane="best" from="-10226022#0" to="744232121#3"/>
    <trip id="veh121" type="veh_passenger" depart="28.99" departLane="best" from="-10241261" to="10247215#2"/>
    <trip id="veh122" type="veh_passenger" depart="29.23" departLane="best" departSpeed="max" from="-10244773" to="-733392812#1"/>
    <trip id="veh123" type="veh_passenger" depart="29.47" departLane="best" from="10240427#14" to="-1352100039"/>
    <trip id="veh124" type="veh_passenger" depart="29.71" departLane="best" from="1212643308#0" to="1103204096#1"/>
    <trip id="veh125" type="veh_passenger" depart="29.95" departLane="best" from="-10230459#1" to="-10224688#3"/>
    <trip id="veh126" type="veh_passenger" depart="30.19" departLane="best" from="-10230503#6" to="10245246#0"/>
    <trip id="veh127" type="veh_passenger" depart="30.43" departLane="best" from="10247110#0" to="733392812#1"/>
    <trip id="veh128" type="veh_passenger" depart="30.67" departLane="best" from="-439906340#0" to="464810848#0"/>
    <trip id="veh129" type="veh_passenger" depart="30.91" departLane="best" from="-32080756#2" to="-10239390#0"/>
    <trip id="veh130" type="veh_passenger" depart="31.15" departLane="best" from="231243098#5" to="10246340#5"/>
    <trip id="veh131" type="veh_passenger" depart="31.39" departLane="best" from="10235711#1" to="-913109569#1"/>
    <trip id="veh133" type="veh_passenger" depart="31.87" departLane="best" from="144350638#2" to="1326183435#1"/>
    <trip id="veh134" type="veh_passenger" depart="32.11" departLane="best" from="10239796#32" to="-747965410#0"/>
    <trip id="veh135" type="veh_passenger" depart="32.35" departLane="best" from="-10236554#1" to="10235902#0"/>
    <trip id="veh136" type="veh_passenger" depart="32.59" departLane="best" from="-10234489#1" to="10234339#9"/>
    <trip id="veh137" type="veh_passenger" depart="32.83" departLane="best" from="-10247894#0" to="10238016#35"/>
    <trip id="veh138" type="veh_passenger" depart="33.07" departLane="best" departSpeed="max" from="10245730#0" to="-10243971#17"/>
    <trip id="veh139" type="veh_passenger" depart="33.31" departLane="best" from="10237545#0" to="1103213868#1"/>
    <trip id="veh140" type="veh_passenger" depart="33.55" departLane="best" from="-92325376#2" to="599840849#1-AddedOffRampEdge"/>
    <trip id="veh141" type="veh_passenger" depart="33.79" departLane="best" from="231762539#1" to="10233673#0"/>
    <trip id="veh142" type="veh_passenger" depart="34.03" departLane="best" from="-60964054#0" to="-1197094422#13"/>
    <trip id="veh143" type="veh_passenger" depart="34.27" departLane="best" from="-10211015#11" to="1197094420#1"/>
    <trip id="veh144" type="veh_passenger" depart="34.51" departLane="best" from="10237639#4" to="1103204101#1"/>
    <trip id="veh145" type="veh_passenger" depart="34.75" departLane="best" from="-10248174#4" to="10234319"/>
    <trip id="veh146" type="veh_passenger" depart="34.98" departLane="best" from="-637274111#0" to="-10224511#1"/>
    <trip id="veh147" type="veh_passenger" depart="35.22" departLane="best" from="-10230782#1" to="476000649#1"/>
    <trip id="veh148" type="veh_passenger" depart="35.46" departLane="best" from="564771726#2" to="10233695#1"/>
    <trip id="veh149" type="veh_passenger" depart="35.70" departLane="best" from="-10237544#9" to="-10237179#4"/>
    <trip id="veh150" type="veh_passenger" depart="35.94" departLane="best" from="-1105671343#0" to="-561623014#0"/>
    <trip id="veh151" type="veh_passenger" depart="36.18" departLane="best" from="1237848291#1" to="353277012"/>
    <trip id="veh152" type="veh_passenger" depart="36.42" departLane="best" from="532779367#5" to="10244863#1"/>
    <trip id="veh153" type="veh_passenger" depart="36.66" departLane="best" departSpeed="max" from="-10245833#1" to="10234638#3"/>
    <trip id="veh154" type="veh_passenger" depart="36.90" departLane="best" from="1105671343#0" to="495298599#1"/>
    <trip id="veh155" type="veh_passenger" depart="37.14" departLane="best" from="-531543220#2" to="10239177#3"/>
    <trip id="veh156" type="veh_passenger" depart="37.38" departLane="best" departSpeed="max" from="-10237842" to="705606794"/>
    <trip id="veh157" type="veh_passenger" depart="37.62" departLane="best" from="-346477414#3" to="82250990#1"/>
    <trip id="veh158" type="veh_passenger" depart="37.86" departLane="best" from="1348772569" to="-468892539#3"/>
    <trip id="veh159" type="veh_passenger" depart="38.10" departLane="best" from="-10225759#12" to="10248962#23"/>
    <trip id="veh160" type="veh_passenger" depart="38.34" departLane="best" departSpeed="max" from="-1303193249#3" to="-706444371#0"/>
    <trip id="veh161" type="veh_passenger" depart="38.58" departLane="best" from="-1267468268#53" to="-36313409#0"/>
    <trip id="veh162" type="veh_passenger" depart="38.82" departLane="best" from="1337296085#1" to="1103213873#3"/>
    <trip id="veh163" type="veh_passenger" depart="39.06" departLane="best" from="-1210607046#0" to="-10234866#0"/>
    <trip id="veh164" type="veh_passenger" depart="39.30" departLane="best" from="36872256#11" to="-228550732#0"/>
    <trip id="veh165" type="veh_passenger" depart="39.54" departLane="best" from="-10243408#1" to="230345099#2"/>
    <trip id="veh166" type="veh_passenger" depart="39.78" departLane="best" from="-790916858#0" to="-157871229#26"/>
    <trip id="veh167" type="veh_passenger" depart="40.02" departLane="best" from="-1237848283#4" to="10246754#13"/>
    <trip id="veh168" type="veh_passenger" depart="40.26" departLane="best" departSpeed="max" from="-10225741#1" to="-10242533#0"/>
    <trip id="veh169" type="veh_passenger" depart="40.50" departLane="best" from="-1267468268#7" to="36313412#1"/>
    <trip id="veh170" type="veh_passenger" depart="40.74" departLane="best" from="-793138986#0" to="-1210607050#1"/>
    <trip id="veh171" type="veh_passenger" depart="40.98" departLane="best" from="-10237978#2" to="749505576#0"/>
    <trip id="veh172" type="veh_passenger" depart="41.22" departLane="best" from="842663977#4" to="10232105#1"/>
    <trip id="veh173" type="veh_passenger" depart="41.45" departLane="best" from="745184737#1" to="-10235898#0"/>
    <trip id="veh174" type="veh_passenger" depart="41.69" departLane="best" from="-81804847#2" to="10241083#1"/>
    <trip id="veh175" type="veh_passenger" depart="41.93" departLane="best" from="793138964" to="1103213873#14"/>
    <trip id="veh176" type="veh_passenger" depart="42.17" departLane="best" from="-10234573#2" to="919107643#15"/>
    <trip id="veh177" type="veh_passenger" depart="42.41" departLane="best" from="10246754#25" to="-231243098#18"/>
    <trip id="veh179" type="veh_passenger" depart="42.89" departLane="best" from="362127372#5" to="-10236101#3"/>
    <trip id="veh180" type="veh_passenger" depart="43.13" departLane="best" from="-10188226#11" to="36309834#1"/>
    <trip id="veh181" type="veh_passenger" depart="43.37" departLane="best" from="10227689#4" to="10247773#1"/>
    <trip id="veh182" type="veh_passenger" depart="43.61" departLane="best" departSpeed="max" from="10248198#0" to="10243130#1"/>
    <trip id="veh183" type="veh_passenger" depart="43.85" departLane="best" from="-28492844#7" to="10230529#7"/>
    <trip id="veh184" type="veh_passenger" depart="44.09" departLane="best" from="10239802#1" to="-299784304#6"/>
    <trip id="veh185" type="veh_passenger" depart="44.33" departLane="best" from="1210604234#14" to="-32836401#0"/>
    <trip id="veh186" type="veh_passenger" depart="44.57" departLane="best" from="10246098#4" to="-1352266817#2"/>
    <trip id="veh187" type="veh_passenger" depart="44.81" departLane="best" from="1189097472#5" to="790916849#0"/>
    <trip id="veh188" type="veh_passenger" depart="45.05" departLane="best" from="-525994461#1" to="-1303193244"/>
    <trip id="veh189" type="veh_passenger" depart="45.29" departLane="best" from="-10235980#1" to="-81814343#9"/>
    <trip id="veh190" type="veh_passenger" depart="45.53" departLane="best" from="-746277106#0" to="10243681#2"/>
    <trip id="veh191" type="veh_passenger" depart="45.77" departLane="best" from="561623010#0" to="10238807"/>
    <trip id="veh192" type="veh_passenger" depart="46.01" departLane="best" from="-1103213873#12" to="10234099#1"/>
    <trip id="veh193" type="veh_passenger" depart="46.25" departLane="best" from="-10187171#1" to="-1264279889"/>
    <trip id="veh194" type="veh_passenger" depart="46.49" departLane="best" from="-653400700" to="10236482"/>
    <trip id="veh195" type="veh_passenger" depart="46.73" departLane="best" from="10239177#1" to="10225368"/>
    <trip id="veh196" type="veh_passenger" depart="46.97" departLane="best" from="-738656580#2" to="-10245492#2"/>
    <trip id="veh197" type="veh_passenger" depart="47.21" departLane="best" from="-82249852#4" to="-566551616#3"/>
    <trip id="veh198" type="veh_passenger" depart="47.45" departLane="best" from="-1237848289#1" to="-10240358#3"/>
    <trip id="veh199" type="veh_passenger" depart="47.68" departLane="best" from="10231733#11" to="10230120#1"/>
    <trip id="veh200" type="veh_passenger" depart="47.92" departLane="best" from="-10237473#3" to="33064403#5"/>
    <trip id="veh201" type="veh_passenger" depart="48.16" departLane="best" from="-157871229#24" to="1095499050#1"/>
    <trip id="veh202" type="veh_passenger" depart="48.40" departLane="best" from="-10240538#7" to="10246456#3"/>
    <trip id="veh203" type="veh_passenger" depart="48.64" departLane="best" from="-10240891#9" to="10225905#21"/>
    <trip id="veh204" type="veh_passenger" depart="48.88" departLane="best" departSpeed="max" from="-10245545" to="-10226071#2"/>
    <trip id="veh205" type="veh_passenger" depart="49.12" departLane="best" from="28337246#4" to="-10230879"/>
    <trip id="veh206" type="veh_passenger" depart="49.36" departLane="best" from="-561623007#2" to="10239796#19"/>
    <trip id="veh207" type="veh_passenger" depart="49.60" departLane="best" from="10240565#8" to="10245662#3"/>
    <trip id="veh208" type="veh_passenger" depart="49.84" departLane="best" from="-94797607#4" to="10248650#1"/>
    <trip id="veh209" type="veh_passenger" depart="50.08" departLane="best" departSpeed="max" from="10239308#0" to="-10220600#1"/>
    <trip id="veh210" type="veh_passenger" depart="50.32" departLane="best" from="-10248892#1" to="1196912282#2"/>
    <trip id="veh211" type="veh_passenger" depart="50.56" departLane="best" from="-10234354#8" to="83944492#3"/>
    <trip id="veh212" type="veh_passenger" depart="50.80" departLane="best" from="-10239398#8" to="793138944#0"/>
    <trip id="veh213" type="veh_passenger" depart="51.04" departLane="best" from="10225755#15" to="-10228961#1"/>
    <trip id="veh214" type="veh_passenger" depart="51.28" departLane="best" departSpeed="max" from="-10245824#1" to="32836404"/>
    <trip id="veh215" type="veh_passenger" depart="51.52" departLane="best" departSpeed="max" from="-766404661" to="1353309535"/>
    <trip id="veh216" type="veh_passenger" depart="51.76" departLane="best" departSpeed="max" from="10240223#0" to="919107643#12"/>
    <trip id="veh217" type="veh_passenger" depart="52.00" departLane="best" from="10234240#7" to="766404660#5"/>
    <trip id="veh218" type="veh_passenger" depart="52.24" departLane="best" from="531480977#2" to="10238631#9"/>
    <trip id="veh219" type="veh_passenger" depart="52.48" departLane="best" from="10246098#0" to="10229318#20"/>
    <trip id="veh220" type="veh_passenger" depart="52.72" departLane="best" from="230377848#0" to="10234095#7"/>
    <trip id="veh221" type="veh_passenger" depart="52.96" departLane="best" from="531543285#1" to="1030549856#2"/>
    <trip id="veh222" type="veh_passenger" depart="53.20" departLane="best" from="-83942825#0" to="1053662157#1"/>
    <trip id="veh223" type="veh_passenger" depart="53.44" departLane="best" from="10245643#0" to="10240361#0"/>
    <trip id="veh224" type="veh_passenger" depart="53.68" departLane="best" from="-1103204096#2" to="10230709"/>
    <trip id="veh225" type="veh_passenger" depart="53.92" departLane="best" from="-10237254#4" to="-1196892038"/>
    <trip id="veh226" type="veh_passenger" depart="54.15" departLane="best" from="-10231143#0" to="-1237848289#0"/>
    <trip id="veh227" type="veh_passenger" depart="54.39" departLane="best" from="-10247846#2" to="231364920#1"/>
    <trip id="veh228" type="veh_passenger" depart="54.63" departLane="best" from="10228024#1" to="-10237706#3"/>
    <trip id="veh229" type="veh_passenger" depart="54.87" departLane="best" from="-10243971#16" to="10245561#5"/>
    <trip id="veh230" type="veh_passenger" depart="55.11" departLane="best" from="10244314" to="10230027#15"/>
    <trip id="veh231" type="veh_passenger" depart="55.35" departLane="best" from="-531543249#3" to="10232803#1"/>
    <trip id="veh232" type="veh_passenger" depart="55.59" departLane="best" from="-561623012#0" to="10244411#1"/>
    <trip id="veh233" type="veh_passenger" depart="55.83" departLane="best" from="-570142812#2" to="586664279#9"/>
    <trip id="veh234" type="veh_passenger" depart="56.07" departLane="best" from="-10232196#1" to="10245624#7"/>
    <trip id="veh235" type="veh_passenger" depart="56.31" departLane="best" from="32078708#2" to="1105213812#0"/>
    <trip id="veh236" type="veh_passenger" depart="56.55" departLane="best" from="-346477414#1" to="10224193#0"/>
    <trip id="veh237" type="veh_passenger" depart="56.79" departLane="best" from="-231243098#5" to="1103204102#0"/>
    <trip id="veh238" type="veh_passenger" depart="57.03" departLane="best" from="28768698#0" to="790916858#1"/>