<?xml version="1.0" encoding="UTF-8"?>

<!-- generated on 2025-03-28 21:04:54.718610 by osmWebWizard.py UNKNOWN
<configuration>
    <net-file value="/home/cam/Sumo/2025-03-28-20-32-12/osm.net.xml.gz"/>
    <output-trip-file value="/home/cam/Sumo/2025-03-28-20-32-12/osm.bus.trips.xml"/>
    <route-file value="/home/cam/Sumo/2025-03-28-20-32-12/osm.bus.rou.xml"/>
    <prefix value="bus"/>
    <trip-attributes value="departLane=&quot;best&quot;"/>
    <fringe-start-attributes value="departSpeed=&quot;max&quot;"/>
    <vehicle-class value="bus"/>
    <fringe-factor value="5"/>
    <vclass value="bus"/>
    <via-edge-types value="highway.motorway,highway.motorway_link,highway.trunk_link,highway.primary_link,highway.secondary_link,highway.tertiary_link"/>
    <min-distance value="600.0"/>
    <min-distance.fringe value="10.0"/>
    <remove-loops value="True"/>
    <validate value="True"/>
    <insertion-density value="4.0"/>
</configuration>
-->

<!-- generated on 2025-03-28 20:50:34 by Eclipse SUMO duarouter Version 1.22.0
<duarouterConfiguration xmlns:xsi="http://www.w3.org/2001/XMLSchema-instance" xsi:noNamespaceSchemaLocation="http://sumo.dlr.de/xsd/duarouterConfiguration.xsd">

    <input>
        <net-file value="/home/cam/Sumo/2025-03-28-20-32-12/osm.net.xml.gz"/>
        <route-files value="/home/cam/Sumo/2025-03-28-20-32-12/osm.bus.trips.xml"/>
    </input>

    <output>
        <output-file value="/home/cam/Sumo/2025-03-28-20-32-12/osm.bus.trips.xml.tmp"/>
        <alternatives-output value="NUL"/>
        <write-trips value="true"/>
    </output>

    <processing>
        <remove-loops value="true"/>
    </processing>

    <time>
        <begin value="0.0"/>
        <end value="3600.0"/>
    </time>

    <report>
        <no-warnings value="true"/>
        <ignore-errors value="true"/>
        <no-step-log value="true"/>
    </report>

</duarouterConfiguration>
-->

<routes xmlns:xsi="http://www.w3.org/2001/XMLSchema-instance" xsi:noNamespaceSchemaLocation="http://sumo.dlr.de/xsd/routes_file.xsd">
    <vType id="bus_bus" vClass="bus"/>
    <trip id="bus0" type="bus_bus" depart="0.00" departLane="best" from="10237342#1" to="10225717#1"/>
    <trip id="bus1" type="bus_bus" depart="0.11" departLane="best" from="-1058389495#2" to="-10248844#42"/>
    <trip id="bus2" type="bus_bus" depart="0.23" departLane="best" from="10248304#0" to="10245215"/>
    <trip id="bus3" type="bus_bus" depart="0.34" departLane="best" from="582059291#1" to="-10233728#0"/>
    <trip id="bus4" type="bus_bus" depart="0.46" departLane="best" from="-659594697#3" to="10226124#31"/>
    <trip id="bus5" type="bus_bus" depart="0.57" departLane="best" from="-10245088#5" to="-10228228#4"/>
    <trip id="bus6" type="bus_bus" depart="0.69" departLane="best" from="-10225393#3" to="-10246337#0"/>
    <trip id="bus7" type="bus_bus" depart="0.80" departLane="best" from="10238156#2" to="-10232468#4"/>
    <trip id="bus8" type="bus_bus" depart="0.91" departLane="best" from="-10245279#0" to="10236593"/>
    <trip id="bus9" type="bus_bus" depart="1.03" departLane="best" from="208477488#3" to="-10211602"/>
    <trip id="bus10" type="bus_bus" depart="1.14" departLane="best" from="172743649#14" to="10247142#4"/>
    <trip id="bus11" type="bus_bus" depart="1.26" departLane="best" departSpeed="max" from="-256981821#3" to="-10240331#1"/>
    <trip id="bus12" type="bus_bus" depart="1.37" departLane="best" from="809902752#4" to="-473051381#1"/>
    <trip id="bus13" type="bus_bus" depart="1.49" departLane="best" from="-10232741#11" to="-10234701#4"/>
    <trip id="bus14" type="bus_bus" depart="1.60" departLane="best" departSpeed="max" from="359388890#0" to="10237614#18"/>
    <trip id="bus15" type="bus_bus" depart="1.72" departLane="best" from="180594116#1" to="1046766215#2"/>
    <trip id="bus16" type="bus_bus" depart="1.83" departLane="best" from="10225288#2" to="860296263#1"/>
    <trip id="bus18" type="bus_bus" depart="2.06" departLane="best" from="-85213350#2" to="10238970#1"/>
    <trip id="bus19" type="bus_bus" depart="2.17" departLane="best" from="432598366#5" to="10235623#7"/>
    <trip id="bus20" type="bus_bus" depart="2.29" departLane="best" departSpeed="max" from="10244814" to="-10228751#8"/>
    <trip id="bus21" type="bus_bus" depart="2.40" departLane="best" departSpeed="max" from="-10246198#1" to="-229962192#0"/>
    <trip id="bus22" type="bus_bus" depart="2.52" departLane="best" from="-10231673#4" to="-1031069192#1"/>
    <trip id="bus23" type="bus_bus" depart="2.63" departLane="best" from="-10233803" to="-152428410#3"/>
    <trip id="bus24" type="bus_bus" depart="2.74" departLane="best" from="10236837#2" to="-609397637#4"/>
    <trip id="bus25" type="bus_bus" depart="2.86" departLane="best" from="-37185341#4" to="-10247193#4"/>
    <trip id="bus26" type="bus_bus" depart="2.97" departLane="best" from="1030777445#1" to="-802329235"/>
    <trip id="bus30" type="bus_bus" depart="3.43" departLane="best" from="933026926" to="-10240793#1"/>
    <trip id="bus31" type="bus_bus" depart="3.54" departLane="best" from="10227756#9" to="10246190#1"/>
    <trip id="bus32" type="bus_bus" depart="3.66" departLane="best" from="342408085#0" to="1339417053#2"/>
    <trip id="bus33" type="bus_bus" depart="3.77" departLane="best" from="-10246277#0" to="-10226349#0"/>
    <trip id="bus34" type="bus_bus" depart="3.89" departLane="best" from="-150663456#6" to="1304740348#0"/>
    <trip id="bus35" type="bus_bus" depart="4.00" departLane="best" departSpeed="max" from="-10244296" to="-804804533#0"/>
    <trip id="bus36" type="bus_bus" depart="4.12" departLane="best" departSpeed="max" from="547963903#0" to="-34406676#0"/>
    <trip id="bus37" type="bus_bus" depart="4.23" departLane="best" from="-10238718#10" to="-781596294#24"/>
    <trip id="bus38" type="bus_bus" depart="4.35" departLane="best" departSpeed="max" from="727701918#0" to="10192030#2"/>
    <trip id="bus39" type="bus_bus" depart="4.46" departLane="best" departSpeed="max" from="-10249078" to="-1127656516"/>
    <trip id="bus40" type="bus_bus" depart="4.57" departLane="best" from="-10228740#3" to="1267468268#33"/>
    <trip id="bus41" type="bus_bus" depart="4.69" departLane="best" from="10231563#0" to="681263180#2"/>
    <trip id="bus42" type="bus_bus" depart="4.80" departLane="best" from="561623009#10" to="-10248524#4"/>
    <trip id="bus43" type="bus_bus" depart="4.92" departLane="best" from="993332414#0" to="10228765#1"/>
    <trip id="bus44" type="bus_bus" depart="5.03" departLane="best" departSpeed="max" from="-10232566#1" to="-10228946#4"/>
    <trip id="bus45" type="bus_bus" depart="5.15" departLane="best" from="10234577#1" to="10239796#10"/>
    <trip id="bus47" type="bus_bus" depart="5.37" departLane="best" from="-10229799#6" to="-743769374"/>
    <trip id="bus49" type="bus_bus" depart="5.60" departLane="best" from="844955063#0" to="82360231#0"/>
    <trip id="bus50" type="bus_bus" depart="5.72" departLane="best" from="102222830#4" to="10249022#0"/>
    <trip id="bus51" type="bus_bus" depart="5.83" departLane="best" from="-10234744#0" to="10231795#1"/>
    <trip id="bus52" type="bus_bus" depart="5.95" departLane="best" from="-1030596438#8" to="10240854#1"/>
    <trip id="bus53" type="bus_bus" depart="6.06" departLane="best" departSpeed="max" from="-10234726#1" to="-891693098#4"/>
    <trip id="bus54" type="bus_bus" depart="6.17" departLane="best" from="-786961389#5" to="809882720#1"/>
    <trip id="bus55" type="bus_bus" depart="6.29" departLane="best" from="547806773#5" to="-1268825182#10"/>
    <trip id="bus56" type="bus_bus" depart="6.40" departLane="best" from="-932255662#8" to="-10243706#7"/>
    <trip id="bus57" type="bus_bus" depart="6.52" departLane="best" from="705606798#0" to="561623007#4"/>
    <trip id="bus58" type="bus_bus" depart="6.63" departLane="best" departSpeed="max" from="-1257684113#1" to="-10240581#2"/>
    <trip id="bus59" type="bus_bus" depart="6.75" departLane="best" from="-10234339#10" to="-10240031#1"/>
    <trip id="bus61" type="bus_bus" depart="6.98" departLane="best" departSpeed="max" from="1208639955" to="10231180#2"/>
    <trip id="bus62" type="bus_bus" depart="7.09" departLane="best" from="100198878#8" to="-37185359#1"/>
    <trip id="bus63" type="bus_bus" depart="7.20" departLane="best" from="-10224843#0" to="784525837"/>
    <trip id="bus64" type="bus_bus" depart="7.32" departLane="best" departSpeed="max" from="54902681#0" to="346673011#33"/>
    <trip id="bus65" type="bus_bus" depart="7.43" departLane="best" departSpeed="max" from="-1316556346#2" to="-10230091#0"/>
    <trip id="bus66" type="bus_bus" depart="7.55" departLane="best" departSpeed="max" from="54894117#0" to="808911914#2"/>
    <trip id="bus67" type="bus_bus" depart="7.66" departLane="best" departSpeed="max" from="-10232188#1" to="10225769"/>
    <trip id="bus68" type="bus_bus" depart="7.78" departLane="best" from="-10230200#4" to="1237848288#2"/>
    <trip id="bus69" type="bus_bus" depart="7.89" departLane="best" from="1103213874#1" to="-10237602#3"/>
    <trip id="bus70" type="bus_bus" depart="8.00" departLane="best" departSpeed="max" from="-809882745#1" to="10233050#5"/>
    <trip id="bus71" type="bus_bus" depart="8.12" departLane="best" departSpeed="max" from="-10249098#1" to="565550890#6"/>
    <trip id="bus72" type="bus_bus" depart="8.23" departLane="best" departSpeed="max" from="-669764300#1" to="10247486#2"/>
    <trip id="bus73" type="bus_bus" depart="8.35" departLane="best" from="10225604#0" to="1047171510#0"/>
    <trip id="bus74" type="bus_bus" depart="8.46" departLane="best" from="-10243119#2" to="-33298259#0"/>
    <trip id="bus75" type="bus_bus" depart="8.58" departLane="best" from="966568523#0" to="10241673"/>
    <trip id="bus76" type="bus_bus" depart="8.69" departLane="best" from="-750084997#1" to="10229598#27"/>
    <trip id="bus77" type="bus_bus" depart="8.80" departLane="best" departSpeed="max" from="-10235586" to="10248888#0"/>
    <trip id="bus78" type="bus_bus" depart="8.92" departLane="best" from="-244437403#1" to="10236518#5"/>
    <trip id="bus79" type="bus_bus" depart="9.03" departLane="best" from="10246346#3" to="-10248592#5"/>
    <trip id="bus80" type="bus_bus" depart="9.15" departLane="best" from="10230524#11" to="10240003#1"/>
    <trip id="bus81" type="bus_bus" depart="9.26" departLane="best" departSpeed="max" from="-10246272" to="727665707#18"/>
    <trip id="bus82" type="bus_bus" depart="9.38" departLane="best" from="41431728#3" to="-10231865#8"/>
    <trip id="bus83" type="bus_bus" depart="9.49" departLane="best" from="-10246898#1" to="10244426#1"/>
    <trip id="bus84" type="bus_bus" depart="9.61" departLane="best" from="-10244609#1" to="-10238016#32"/>
    <trip id="bus85" type="bus_bus" depart="9.72" departLane="best" departSpeed="max" from="784525842#0" to="10235042#4"/>
    <trip id="bus86" type="bus_bus" depart="9.83" departLane="best" from="-809852103#4" to="157871241#8"/>
    <trip id="bus87" type="bus_bus" depart="9.95" departLane="best" from="202063202#5" to="-10245269#1"/>
    <trip id="bus88" type="bus_bus" depart="10.06" departLane="best" from="10233408#7" to="-864518257"/>
    <trip id="bus89" type="bus_bus" depart="10.18" departLane="best" from="673875826#2" to="1022407015"/>
    <trip id="bus90" type="bus_bus" depart="10.29" departLane="best" from="-10247412#3" to="10244857#3"/>
    <trip id="bus91" type="bus_bus" depart="10.41" departLane="best" from="925332634" to="-10234915#1"/>
    <trip id="bus93" type="bus_bus" depart="10.63" departLane="best" from="432598366#27" to="-1175759965#6"/>
    <trip id="bus94" type="bus_bus" depart="10.75" departLane="best" from="-10241478#0" to="94825131#2"/>
    <trip id="bus95" type="bus_bus" depart="10.86" departLane="best" from="659442149#3" to="-157871220#4"/>
    <trip id="bus96" type="bus_bus" depart="10.98" departLane="best" from="-10248056#1" to="-773666772#2"/>
    <trip id="bus97" type="bus_bus" depart="11.09" departLane="best" departSpeed="max" from="-758097232#1" to="544659091#1"/>
    <trip id="bus98" type="bus_bus" depart="11.21" departLane="best" from="-10226649#4" to="-10229236"/>
    <trip id="bus100" type="bus_bus" depart="11.43" departLane="best" from="82805830#2" to="782102997#1"/>
    <trip id="bus101" type="bus_bus" depart="11.55" departLane="best" from="36689200#1" to="-10241547#0"/>
    <trip id="bus102" type="bus_bus" depart="11.66" departLane="best" from="-82697556#2" to="-10247793#2"/>
    <trip id="bus103" type="bus_bus" depart="11.78" departLane="best" from="565550889#2" to="-10230125#8"/>
    <trip id="bus104" type="bus_bus" depart="11.89" departLane="best" from="-45877227#6" to="-932416326#1"/>
    <trip id="bus105" type="bus_bus" depart="12.01" departLane="best" from="10249104#24" to="157871210"/>
    <trip id="bus107" type="bus_bus" depart="12.24" departLane="best" from="809902762#0" to="966566189#1"/>
    <trip id="bus108" type="bus_bus" depart="12.35" departLane="best" from="10227126#2" to="-10248962#15"/>
    <trip id="bus109" type="bus_bus" depart="12.46" departLane="best" from="-10238383#1" to="244437404#3"/>
    <trip id="bus110" type="bus_bus" depart="12.58" departLane="best" from="82805788#6" to="10235852#1"/>
    <trip id="bus111" type="bus_bus" depart="12.69" departLane="best" from="10225828#3" to="1179643857"/>
    <trip id="bus112" type="bus_bus" depart="12.81" departLane="best" from="-10229070#30" to="10236172#8"/>
    <trip id="bus113" type="bus_bus" depart="12.92" departLane="best" from="-932501200#14" to="467514350#1"/>
    <trip id="bus114" type="bus_bus" depart="13.04" departLane="best" from="-10238631#23" to="81609157#0"/>
    <trip id="bus115" type="bus_bus" depart="13.15" departLane="best" from="-10231694#2" to="-10244623#1"/>
    <trip id="bus116" type="bus_bus" depart="13.26" departLane="best" from="-10232580#0" to="-10245064#1"/>
    <trip id="bus117" type="bus_bus" depart="13.38" departLane="best" departSpeed="max" from="-10246740#1" to="10236899#39"/>
    <trip id="bus118" type="bus_bus" depart="13.49" departLane="best" from="-581983814#1" to="1123750893#1"/>
    <trip id="bus119" type="bus_bus" depart="13.61" departLane="best" from="10232551#0" to="10239044#3"/>
    <trip id="bus120" type="bus_bus" depart="13.72" departLane="best" from="-635426043#1" to="10236152#4"/>
    <trip id="bus121" type="bus_bus" depart="13.84" departLane="best" from="10213474#1" to="797917011#4"/>
    <trip id="bus122" type="bus_bus" depart="13.95" departLane="best" from="-10243539#1" to="-10248879#4"/>
    <trip id="bus123" type="bus_bus" depart="14.06" departLane="best" from="-10246931#20" to="-781596294#39"/>
    <trip id="bus124" type="bus_bus" depart="14.18" departLane="best" from="10240246#3" to="-27897816#1"/>
    <trip id="bus125" type="bus_bus" depart="14.29" departLane="best" from="-150705604#0" to="1197094422#6"/>
    <trip id="bus126" type="bus_bus" depart="14.41" departLane="best" from="10230784#7" to="10189851#2"/>
    <trip id="bus128" type="bus_bus" depart="14.64" departLane="best" departSpeed="max" from="-10230831" to="-10247717#5"/>
    <trip id="bus129" type="bus_bus" depart="14.75" departLane="best" from="-10249104#21" to="793138960#1"/>
    <trip id="bus130" type="bus_bus" depart="14.87" departLane="best" from="54920514#1" to="-582027373#2"/>
    <trip id="bus131" type="bus_bus" depart="14.98" departLane="best" from="-37185308#2" to="-10240535#2"/>
    <trip id="bus132" type="bus_bus" depart="15.09" departLane="best" from="305623491#3" to="10247774#2"/>
    <trip id="bus133" type="bus_bus" depart="15.21" departLane="best" from="10234577#20" to="932501200#5"/>
    <trip id="bus134" type="bus_bus" depart="15.32" departLane="best" from="-10238631#7" to="-10217218"/>
    <trip id="bus135" type="bus_bus" depart="15.44" departLane="best" from="231221597#0" to="-27873449#4"/>
    <trip id="bus136" type="bus_bus" depart="15.55" departLane="best" from="-10239556#2" to="80315630#1"/>
    <trip id="bus137" type="bus_bus" depart="15.67" departLane="best" from="-10236743#2" to="-10236536"/>
    <trip id="bus138" type="bus_bus" depart="15.78" departLane="best" from="-10234361#1" to="10233439#3"/>
    <trip id="bus139" type="bus_bus" depart="15.89" departLane="best" from="-105738915#11" to="10237718#2"/>
    <trip id="bus141" type="bus_bus" depart="16.12" departLane="best" from="10236782#4" to="1271219336#3"/>
    <trip id="bus142" type="bus_bus" depart="16.24" departLane="best" departSpeed="max" from="-841082058" to="727665707#0"/>
    <trip id="bus143" type="bus_bus" depart="16.35" departLane="best" from="346673011#43" to="-10234327#6"/>
    <trip id="bus144" type="bus_bus" depart="16.47" departLane="best" from="673875826#2" to="-150825494#2"/>
    <trip id="bus145" type="bus_bus" depart="16.58" departLane="best" departSpeed="max" from="-10190470#1" to="1310631280#4"/>
    <trip id="bus146" type="bus_bus" depart="16.69" departLane="best" from="10237160#4" to="1266714137#0"/>
    <trip id="bus147" type="bus_bus" depart="16.81" departLane="best" from="10248844#73" to="10233296#9"/>
    <trip id="bus148" type="bus_bus" depart="16.92" departLane="best" from="-686158892#2" to="-10224181"/>
    <trip id="bus149" type="bus_bus" depart="17.04" departLane="best" from="10231256#1" to="593738446#0"/>
    <trip id="bus150" type="bus_bus" depart="17.15" departLane="best" from="637365828#1" to="10232540#7"/>
    <trip id="bus151" type="bus_bus" depart="17.27" departLane="best" from="31560233#9" to="10236072#1"/>
    <trip id="bus152" type="bus_bus" depart="17.38" departLane="best" from="-10237639#6" to="10237576"/>
    <trip id="bus153" type="bus_bus" depart="17.50" departLane="best" departSpeed="max" from="-1320185926#1" to="684661239#4"/>
    <trip id="bus154" type="bus_bus" depart="17.61" departLane="best" departSpeed="max" from="1337288157#0" to="540086080#5"/>
    <trip id="bus155" type="bus_bus" depart="17.72" departLane="best" from="626424079#2-AddedOnRampEdge" to="10247239#5"/>
    <trip id="bus156" type="bus_bus" depart="17.84" departLane="best" departSpeed="max" from="-10248030" to="-10235269#0"/>
    <trip id="bus157" type="bus_bus" depart="17.95" departLane="best" from="1212643309#1" to="593891725#1"/>
    <trip id="bus158" type="bus_bus" depart="18.07" departLane="best" departSpeed="max" from="-581988681" to="10239170#0"/>
    <trip id="bus160" type="bus_bus" depart="18.30" departLane="best" from="465786113#0" to="88597825#1"/>
    <trip id="bus161" type="bus_bus" depart="18.41" departLane="best" from="208485839#1" to="583351669#4"/>
    <trip id="bus162" type="bus_bus" depart="18.52" departLane="best" from="-10225260#2" to="1071058731#1"/>
    <trip id="bus164" type="bus_bus" depart="18.75" departLane="best" from="150705613#5" to="776135846#1"/>
    <trip id="bus165" type="bus_bus" depart="18.87" departLane="best" from="208485838#0" to="1300980074#3"/>
    <trip id="bus166" type="bus_bus" depart="18.98" departLane="best" from="-1267468268#35" to="-10235946#0"/>
    <trip id="bus167" type="bus_bus" depart="19.10" departLane="best" from="531543285#1" to="531543195#1"/>
    <trip id="bus168" type="bus_bus" depart="19.21" departLane="best" departSpeed="max" from="-10245573" to="305623484#1"/>
    <trip id="bus169" type="bus_bus" depart="19.32" departLane="best" departSpeed="max" from="-80312516" to="305623484#0"/>
    <trip id="bus170" type="bus_bus" depart="19.44" departLane="best" from="10233059#13" to="-10248972#1"/>
    <trip id="bus171" type="bus_bus" depart="19.55" departLane="best" from="-10225173#0" to="-10245624#16"/>
    <trip id="bus172" type="bus_bus" depart="19.67" departLane="best" from="-229193351#0" to="548012025#1"/>
    <trip id="bus173" type="bus_bus" depart="19.78" departLane="best" from="82683097#1" to="158884493#13"/>
    <trip id="bus174" type="bus_bus" depart="19.90" departLane="best" from="10237451#3" to="-786961389#0"/>
    <trip id="bus175" type="bus_bus" depart="20.01" departLane="best" from="923066903#1" to="10231733#12"/>
    <trip id="bus177" type="bus_bus" depart="20.24" departLane="best" from="-84027492#7" to="10243700#3"/>
    <trip id="bus178" type="bus_bus" depart="20.35" departLane="best" departSpeed="max" from="816983126#0" to="-1290389145"/>
    <trip id="bus179" type="bus_bus" depart="20.47" departLane="best" from="-10234495#4" to="-88942981#9"/>
    <trip id="bus180" type="bus_bus" depart="20.58" departLane="best" from="-10247363#1" to="-342408087#2"/>
    <trip id="bus181" type="bus_bus" depart="20.70" departLane="best" from="-10234146#0" to="10228980#1"/>
    <trip id="bus182" type="bus_bus" depart="20.81" departLane="best" departSpeed="max" from="-516414702#1" to="10235545#1"/>
    <trip id="bus183" type="bus_bus" depart="20.93" departLane="best" from="-10234158#2" to="10248190"/>
    <trip id="bus184" type="bus_bus" depart="21.04" departLane="best" from="-1018580831#12" to="781596294#12"/>
    <trip id="bus185" type="bus_bus" depart="21.15" departLane="best" from="-10225488#6" to="-10248976#7"/>
    <trip id="bus186" type="bus_bus" depart="21.27" departLane="best" from="10248869#9" to="10244590#13"/>
    <trip id="bus187" type="bus_bus" depart="21.38" departLane="best" departSpeed="max" from="-357337101#1" to="-10231718#4"/>
    <trip id="bus188" type="bus_bus" depart="21.50" departLane="best" from="10239644#2" to="-419357390"/>
    <trip id="bus189" type="bus_bus" depart="21.61" departLane="best" from="1358485924#3" to="44746353"/>
    <trip id="bus190" type="bus_bus" depart="21.73" departLane="best" from="10246594#0" to="28223223#1"/>
    <trip id="bus191" type="bus_bus" depart="21.84" departLane="best" departSpeed="max" from="-1336998271" to="-804490794#1"/>
    <trip id="bus192" type="bus_bus" depart="21.95" departLane="best" from="-566824632#10" to="233576037#1"/>
    <trip id="bus193" type="bus_bus" depart="22.07" departLane="best" departSpeed="max" from="-10236129" to="-814302013#10"/>
    <trip id="bus194" type="bus_bus" depart="22.18" departLane="best" from="-797916982#4" to="10245279#11"/>
    <trip id="bus195" type="bus_bus" depart="22.30" departLane="best" from="637071622#0" to="10238718#4"/>
    <trip id="bus196" type="bus_bus" depart="22.41" departLane="best" from="-1270414630#3" to="10232671#8"/>
    <trip id="bus197" type="bus_bus" depart="22.53" departLane="best" from="100050796#1" to="229033069#8"/>
    <trip id="bus198" type="bus_bus" depart="22.64" departLane="best" from="706444376#1" to="10235924#1"/>
    <trip id="bus199" type="bus_bus" depart="22.76" departLane="best" from="10238675#8" to="10218323"/>
    <trip id="bus200" type="bus_bus" depart="22.87" departLane="best" from="-753607707" to="-10247791#0"/>
    <trip id="bus201" type="bus_bus" depart="22.98" departLane="best" from="-809860548#1" to="686154726#2"/>
    <trip id="bus202" type="bus_bus" depart="23.10" departLane="best" from="1336999141" to="-10242128#7"/>
    <trip id="bus203" type="bus_bus" depart="23.21" departLane="best" from="-10232111#0" to="-10229318#20"/>
    <trip id="bus204" type="bus_bus" depart="23.33" departLane="best" from="10236721#8" to="-467016562#1"/>
    <trip id="bus205" type="bus_bus" depart="23.44" departLane="best" from="231243108#7" to="-1196912277#0"/>
    <trip id="bus206" type="bus_bus" depart="23.56" departLane="best" from="10240358#2" to="-10248885#1"/>
    <trip id="bus207" type="bus_bus" depart="23.67" departLane="best" from="-10242878#4" to="10225682#2"/>
    <trip id="bus208" type="bus_bus" depart="23.78" departLane="best" from="10247538#11" to="10224867#0"/>
    <trip id="bus210" type="bus_bus" depart="24.01" departLane="best" from="-60963168#4" to="10239923#4"/>
    <trip id="bus211" type="bus_bus" depart="24.13" departLane="best" from="10242068#1" to="10247009#10"/>
    <trip id="bus212" type="bus_bus" depart="24.24" departLane="best" from="-888717430#1" to="-1103213877#1"/>
    <trip id="bus213" type="bus_bus" depart="24.36" departLane="best" from="-10238787#10" to="-10207487"/>
    <trip id="bus214" type="bus_bus" depart="24.47" departLane="best" from="1030777448#4" to="1304740346"/>
    <trip id="bus215" type="bus_bus" depart="24.58" departLane="best" from="-10234337#7" to="-82695932"/>
    <trip id="bus216" type="bus_bus" depart="24.70" departLane="best" from="-10240102#0" to="810638683#2"/>
    <trip id="bus217" type="bus_bus" depart="24.81" departLane="best" from="10187229#3" to="-10229209#8"/>
    <trip id="bus218" type="bus_bus" depart="24.93" departLane="best" from="-10248002" to="44751988#1"/>
    <trip id="bus219" type="bus_bus" depart="25.04" departLane="best" from="-796684978#1" to="231365239#16"/>
    <trip id="bus220" type="bus_bus" depart="25.16" departLane="best" from="10239894#7" to="-933008256#10"/>
    <trip id="bus221" type="bus_bus" depart="25.27" departLane="best" from="-10232638#4" to="808982924#2"/>
    <trip id="bus222" type="bus_bus" depart="25.38" departLane="best" from="582027372#1" to="-10238456#3"/>
    <trip id="bus223" type="bus_bus" depart="25.50" departLane="best" from="10246525#9" to="10228122#1"/>
    <trip id="bus224" type="bus_bus" depart="25.61" departLane="best" from="29273302#3" to="10232666"/>
    <trip id="bus225" type="bus_bus" depart="25.73" departLane="best" from="-608191098#1" to="1123518915"/>
    <trip id="bus226" type="bus_bus" depart="25.84" departLane="best" departSpeed="max" from="-809872865#1" to="-1237615510#8"/>
    <trip id="bus227" type="bus_bus" depart="25.96" departLane="best" departSpeed="max" from="-10247825#3" to="10240506"/>
    <trip id="bus228" type="bus_bus" depart="26.07" departLane="best" from="-1103213873#8" to="10230016#6"/>
    <trip id="bus229" type="bus_bus" depart="26.19" departLane="best" from="10236106#1" to="150660925#0"/>
    <trip id="bus230" type="bus_bus" depart="26.30" departLane="best" departSpeed="max" from="-10231396" to="-227602198#9"/>
    <trip id="bus231" type="bus_bus" depart="26.41" departLane="best" from="105726452#1" to="-36872256#8"/>
    <trip id="bus232" type="bus_bus" depart="26.53" departLane="best" from="10225682#28" to="-10238704#1"/>
    <trip id="bus233" type="bus_bus" depart="26.64" departLane="best" from="-10246417#0" to="10246801#4"/>
    <trip id="bus234" type="bus_bus" depart="26.76" departLane="best" departSpeed="max" from="10245108#0" to="-10230915#0"/>
    <trip id="bus235" type="bus_bus" depart="26.87" departLane="best" from="582027367#1" to="10232308#11"/>
    <trip id="bus236" type="bus_bus" depart="26.99" departLane="best" from="-626425300#1" to="10246931#24"/>
    <trip id="bus237" type="bus_bus" depart="27.10" departLane="best" from="-637274133#0" to="723948389#1"/>
    <trip id="bus238" type="bus_bus" depart="27.21" departLane="best" from="10231503#9" to="10246920#15"/>
    <trip id="bus239" type="bus_bus" depart="27.33" departLane="best" from="39586579#7" to="1274723859#3"/>
    <trip id="bus240" type="bus_bus" depart="27.44" departLane="best" from="-465904584#11" to="-10210078#3"/>
    <trip id="bus241" type="bus_bus" depart="27.56" departLane="best" from="32078708#3" to="1198062817"/>
    <trip id="bus242" type="bus_bus" depart="27.67" departLane="best" from="-37185335#4" to="809872866#1"/>
    <trip id="bus243" type="bus_bus" depart="27.79" departLane="best" from="634105568#8" to="1177895974#0"/>
    <trip id="bus244" type="bus_bus" depart="27.90" departLane="best" from="10226186#0" to="-10237599#19"/>
    <trip id="bus245" type="bus_bus" depart="28.01" departLane="best" from="-10245279#2" to="10248544#2"/>
    <trip id="bus246" type="bus_bus" depart="28.13" departLane="best" from="-749756372#16" to="-10226029#1"/>
    <trip id="bus247" type="bus_bus" depart="28.24" departLane="best" from="-233041057#7" to="-10245562#2"/>
    <trip id="bus248" type="bus_bus" depart="28.36" departLane="best" from="568219148#9" to="10241329#1"/>
    <trip id="bus249" type="bus_bus" depart="28.47" departLane="best" from="-804812126#1" to="-10237582#1"/>
    <trip id="bus250" type="bus_bus" depart="28.59" departLane="best" departSpeed="max" from="10235711#0" to="10225870#2"/>
    <trip id="bus251" type="bus_bus" depart="28.70" departLane="best" from="-54903063#0" to="10234501#1"/>
    <trip id="bus252" type="bus_bus" depart="28.82" departLane="best" from="-10225432#6" to="10240951#2"/>
    <trip id="bus253" type="bus_bus" depart="28.93" departLane="best" from="-10236790#1" to="10206565"/>
    <trip id="bus254" type="bus_bus" depart="29.04" departLane="best" departSpeed="max" from="-10228247" to="-723177978#1"/>
    <trip id="bus255" type="bus_bus" depart="29.16" departLane="best" from="-10244383#0" to="-40664560#2"/>
    <trip id="bus256" type="bus_bus" depart="29.27" departLane="best" from="-106483899#0" to="-724187480#2"/>
    <trip id="bus257" type="bus_bus" depart="29.39" departLane="best" from="1031069193#2" to="346673011#6"/>
    <trip id="bus258" type="bus_bus" depart="29.50" departLane="best" departSpeed="max" from="-10248229#1" to="10233065#0"/>
    <trip id="bus259" type="bus_bus" depart="29.62" departLane="best" from="-10224823#0" to="10232077#14"/>
    <trip id="bus260" type="bus_bus" depart="29.73" departLane="best" from="99941023#5" to="-54920905#0"/>
    <trip id="bus261" type="bus_bus" depart="29.84" departLane="best" from="10238203#0" to="150663466#0"/>
    <trip id="bus262" type="bus_bus" depart="29.96" departLane="best" from="10238402#10" to="1201223294#4"/>
    <trip id="bus263" type="bus_bus" depart="30.07" departLane="best" from="-807926844#1" to="-10246353#20"/>
    <trip id="bus264" type="bus_bus" depart="30.19" departLane="best" from="-10224879#13" to="-10240017#1"/>
    <trip id="bus265" type="bus_bus" depart="30.30" departLane="best" from="-10236057#0" to="10244508#5"/>
    <trip id="bus266" type="bus_bus" depart="30.42" departLane="best" from="10229070#28" to="-10248205#2"/>
    <trip id="bus267" type="bus_bus" depart="30.53" departLane="best" from="10244226#5" to="-1284472308#0"/>
    <trip id="bus268" type="bus_bus" depart="30.64" departLane="best" from="-10239483#1" to="10237964#15"/>