<?xml version="1.0" encoding="UTF-8"?>

<!-- generated on 2025-03-18 15:33:31.247181 by osmWebWizard.py v1_20_0+0000-96efa4d36
<configuration>
    <net-file value="/home/cam/sumo/tools/2025-03-18-15-30-49/osm.net.xml.gz"/>
    <output-trip-file value="/home/cam/sumo/tools/2025-03-18-15-30-49/osm.bus.trips.xml"/>
    <route-file value="/home/cam/sumo/tools/2025-03-18-15-30-49/osm.bus.rou.xml"/>
    <prefix value="bus"/>
    <trip-attributes value="departLane=&quot;best&quot;"/>
    <fringe-start-attributes value="departSpeed=&quot;max&quot;"/>
    <vehicle-class value="bus"/>
    <fringe-factor value="5"/>
    <vclass value="bus"/>
    <via-edge-types value="highway.motorway,highway.motorway_link,highway.trunk_link,highway.primary_link,highway.secondary_link,highway.tertiary_link"/>
    <min-distance value="600.0"/>
    <min-distance.fringe value="10.0"/>
    <remove-loops value="True"/>
    <validate value="True"/>
    <insertion-density value="4.0"/>
</configuration>
-->

<!-- generated on 2025-03-18 15:32:49 by Eclipse SUMO duarouter Version 1.20.0
<configuration xmlns:xsi="http://www.w3.org/2001/XMLSchema-instance" xsi:noNamespaceSchemaLocation="http://sumo.dlr.de/xsd/duarouterConfiguration.xsd">

    <input>
        <net-file value="/home/cam/sumo/tools/2025-03-18-15-30-49/osm.net.xml.gz"/>
        <route-files value="/home/cam/sumo/tools/2025-03-18-15-30-49/osm.bus.trips.xml"/>
    </input>

    <output>
        <output-file value="/home/cam/sumo/tools/2025-03-18-15-30-49/osm.bus.trips.xml.tmp"/>
        <alternatives-output value="NUL"/>
        <write-trips value="true"/>
    </output>

    <processing>
        <remove-loops value="true"/>
    </processing>

    <time>
        <begin value="0.0"/>
        <end value="3600.0"/>
    </time>

    <report>
        <no-warnings value="true"/>
        <ignore-errors value="true"/>
        <no-step-log value="true"/>
    </report>

</configuration>
-->

<routes xmlns:xsi="http://www.w3.org/2001/XMLSchema-instance" xsi:noNamespaceSchemaLocation="http://sumo.dlr.de/xsd/routes_file.xsd">
    <vType id="bus_bus" vClass="bus"/>
    <trip id="bus0" type="bus_bus" depart="0.00" departLane="best" departSpeed="max" from="10235026#0" to="-10225694"/>
    <trip id="bus1" type="bus_bus" depart="0.54" departLane="best" departSpeed="max" from="-10245215" to="10244228#5"/>
    <trip id="bus2" type="bus_bus" depart="1.07" departLane="best" departSpeed="max" from="10243130#0" to="10240834#1"/>
    <trip id="bus3" type="bus_bus" depart="1.61" departLane="best" from="-346361429#0" to="10231546#9"/>
    <trip id="bus4" type="bus_bus" depart="2.15" departLane="best" from="346673263#8" to="10225905#6"/>
    <trip id="bus5" type="bus_bus" depart="2.68" departLane="best" departSpeed="max" from="-10240448#1" to="10227055#3"/>
    <trip id="bus6" type="bus_bus" depart="3.22" departLane="best" from="10225566#3" to="-10241330#0"/>
    <trip id="bus7" type="bus_bus" depart="3.76" departLane="best" from="-10235941#7" to="-10231209#1"/>
    <trip id="bus8" type="bus_bus" depart="4.29" departLane="best" from="10240565#2" to="10235161#4"/>
    <trip id="bus9" type="bus_bus" depart="4.83" departLane="best" from="102774144#1" to="-10217513"/>
    <trip id="bus10" type="bus_bus" depart="5.37" departLane="best" from="10249037#8" to="10242548#1"/>
    <trip id="bus11" type="bus_bus" depart="5.90" departLane="best" from="750380847#4" to="231243108#2"/>
    <trip id="bus12" type="bus_bus" depart="6.44" departLane="best" from="-10231331#22" to="-10232762#14"/>
    <trip id="bus13" type="bus_bus" depart="6.98" departLane="best" from="1294920730#2" to="10236182#3"/>
    <trip id="bus14" type="bus_bus" depart="7.51" departLane="best" departSpeed="max" from="10249051#0" to="-10245230#2"/>
    <trip id="bus15" type="bus_bus" depart="8.05" departLane="best" departSpeed="max" from="10224810#0" to="810638688#6"/>
    <trip id="bus16" type="bus_bus" depart="8.59" departLane="best" from="-158884493#7" to="10231865#8"/>
    <trip id="bus17" type="bus_bus" depart="9.12" departLane="best" from="-1196892045#1" to="10237336#6"/>
    <trip id="bus18" type="bus_bus" depart="9.66" departLane="best" from="229193056#0" to="-10234523#2"/>
    <trip id="bus19" type="bus_bus" depart="10.20" departLane="best" from="10240154#0" to="10227055#10"/>
    <trip id="bus20" type="bus_bus" depart="10.73" departLane="best" from="-10241092#0" to="1075166408#5"/>
    <trip id="bus21" type="bus_bus" depart="11.27" departLane="best" from="10230042#1" to="10245246#3"/>
    <trip id="bus22" type="bus_bus" depart="11.81" departLane="best" from="-10232036#1" to="10248943#1"/>
    <trip id="bus23" type="bus_bus" depart="12.34" departLane="best" from="10234757#15" to="-36313408#2"/>
    <trip id="bus24" type="bus_bus" depart="12.88" departLane="best" from="127838675#5" to="-10242533#0"/>
    <trip id="bus25" type="bus_bus" depart="13.42" departLane="best" departSpeed="max" from="-10244526#1" to="637274133#0"/>
    <trip id="bus26" type="bus_bus" depart="13.95" departLane="best" from="-10235902#12" to="10236746#6"/>
    <trip id="bus27" type="bus_bus" depart="14.49" departLane="best" from="-10237545#0" to="10245171"/>
    <trip id="bus28" type="bus_bus" depart="15.03" departLane="best" from="-10237320#12" to="473051382#1"/>
    <trip id="bus29" type="bus_bus" depart="15.56" departLane="best" from="909800760#9" to="10238424"/>
    <trip id="bus30" type="bus_bus" depart="16.10" departLane="best" from="10226335#9" to="10241173#1"/>
    <trip id="bus31" type="bus_bus" depart="16.64" departLane="best" from="-1267253430#3" to="10248844#37"/>
    <trip id="bus32" type="bus_bus" depart="17.17" departLane="best" from="10241120#7" to="-10226048#7"/>
    <trip id="bus33" type="bus_bus" depart="17.71" departLane="best" from="-10248584#4" to="10248601#16"/>
    <trip id="bus34" type="bus_bus" depart="18.24" departLane="best" from="-10240109#2" to="705604625#0"/>
    <trip id="bus35" type="bus_bus" depart="18.78" departLane="best" from="28376056#1" to="-1266180282#1"/>
    <trip id="bus36" type="bus_bus" depart="19.32" departLane="best" departSpeed="max" from="10236432" to="568219148#5"/>
    <trip id="bus37" type="bus_bus" depart="19.85" departLane="best" from="-479644164" to="-10213732#1"/>
    <trip id="bus38" type="bus_bus" depart="20.39" departLane="best" from="-10244300" to="10246639#1"/>
    <trip id="bus39" type="bus_bus" depart="20.93" departLane="best" from="-10226730#0" to="-10248083#2"/>
    <trip id="bus40" type="bus_bus" depart="21.46" departLane="best" from="-10229450#4" to="413237544#42"/>
    <trip id="bus41" type="bus_bus" depart="22.00" departLane="best" from="285267574#0" to="10243727#2"/>
    <trip id="bus42" type="bus_bus" depart="22.54" departLane="best" from="-94456274#0" to="10228136"/>
    <trip id="bus43" type="bus_bus" depart="23.07" departLane="best" from="-10231179#1" to="10227689#2"/>
    <trip id="bus44" type="bus_bus" depart="23.61" departLane="best" from="-10232762#1" to="-10237638#4"/>
    <trip id="bus45" type="bus_bus" depart="24.15" departLane="best" from="-10248624#0" to="766404660#1"/>
    <trip id="bus46" type="bus_bus" depart="24.68" departLane="best" from="-10228915#4" to="-525997674#0"/>
    <trip id="bus47" type="bus_bus" depart="25.22" departLane="best" from="925332619" to="10229823#5"/>
    <trip id="bus48" type="bus_bus" depart="25.76" departLane="best" from="-80377733#1" to="28376060#2"/>
    <trip id="bus49" type="bus_bus" depart="26.29" departLane="best" from="-10224356#6" to="10244443#1"/>
    <trip id="bus50" type="bus_bus" depart="26.83" departLane="best" from="10238355#5" to="10230259#8"/>
    <trip id="bus51" type="bus_bus" depart="27.37" departLane="best" from="-10244512#1" to="-10238476#1"/>
    <trip id="bus52" type="bus_bus" depart="27.90" departLane="best" from="-10233221#2" to="-82360367"/>
    <trip id="bus53" type="bus_bus" depart="28.44" departLane="best" departSpeed="max" from="-561622989#1" to="749755987#0"/>
    <trip id="bus54" type="bus_bus" depart="28.98" departLane="best" from="28337341#4" to="-10248179#5"/>
    <trip id="bus55" type="bus_bus" depart="29.51" departLane="best" from="-81814338#6" to="10239866#5"/>
    <trip id="bus56" type="bus_bus" depart="30.05" departLane="best" departSpeed="max" from="468892539#0" to="32615003"/>
    <trip id="bus57" type="bus_bus" depart="30.59" departLane="best" from="-10247029#3" to="-10238358#2"/>
    <trip id="bus58" type="bus_bus" depart="31.12" departLane="best" from="10231508#2" to="-10237829#0"/>
    <trip id="bus59" type="bus_bus" depart="31.66" departLane="best" departSpeed="max" from="10246075#0" to="10230744#1"/>
    <trip id="bus60" type="bus_bus" depart="32.20" departLane="best" departSpeed="max" from="10247183#0" to="10229968#1"/>
    <trip id="bus61" type="bus_bus" depart="32.73" departLane="best" from="-10187175#0" to="1338511472#1"/>
    <trip id="bus62" type="bus_bus" depart="33.27" departLane="best" from="-10224941#1" to="599956969#1"/>
    <trip id="bus63" type="bus_bus" depart="33.81" departLane="best" departSpeed="max" from="298203171#0" to="131702939#2"/>
    <trip id="bus64" type="bus_bus" depart="34.34" departLane="best" departSpeed="max" from="-10247830#1" to="-10229132#5"/>
    <trip id="bus65" type="bus_bus" depart="34.88" departLane="best" from="28767647#6" to="732761155"/>
    <trip id="bus66" type="bus_bus" depart="35.42" departLane="best" from="-10230688" to="10225905#38"/>
    <trip id="bus67" type="bus_bus" depart="35.95" departLane="best" from="10229209#8" to="10247773#13"/>
    <trip id="bus68" type="bus_bus" depart="36.49" departLane="best" from="10246316#4" to="-10236014#0"/>
    <trip id="bus69" type="bus_bus" depart="37.03" departLane="best" from="-706444371#13" to="10231686#2"/>
    <trip id="bus70" type="bus_bus" depart="37.56" departLane="best" departSpeed="max" from="-10244306#2" to="32836410"/>
    <trip id="bus71" type="bus_bus" depart="38.10" departLane="best" from="-352858086" to="-10242951#1"/>
    <trip id="bus72" type="bus_bus" depart="38.64" departLane="best" departSpeed="max" from="10225041" to="10245246#1"/>
    <trip id="bus73" type="bus_bus" depart="39.17" departLane="best" from="-10239482#21" to="1237848291#16"/>
    <trip id="bus74" type="bus_bus" depart="39.71" departLane="best" departSpeed="max" from="92348904#0" to="10239165#2"/>
    <trip id="bus75" type="bus_bus" depart="40.25" departLane="best" from="-464149025#5" to="10228965"/>
    <trip id="bus76" type="bus_bus" depart="40.78" departLane="best" from="10234264#14" to="-10244306#1"/>
    <trip id="bus77" type="bus_bus" depart="41.32" departLane="best" departSpeed="max" from="-1053662152#3" to="10235107#1"/>
    <trip id="bus78" type="bus_bus" depart="41.86" departLane="best" departSpeed="max" from="-10241125#1" to="-10243916#1"/>
    <trip id="bus79" type="bus_bus" depart="42.39" departLane="best" departSpeed="max" from="-10229405#1" to="-10237863#2"/>
    <trip id="bus80" type="bus_bus" depart="42.93" departLane="best" from="-10241120#3" to="-468892539#1"/>
    <trip id="bus81" type="bus_bus" depart="43.47" departLane="best" from="-229033070#24" to="10230027#20"/>
    <trip id="bus82" type="bus_bus" depart="44.00" departLane="best" departSpeed="max" from="-10241664#2" to="-10240361#2"/>
    <trip id="bus83" type="bus_bus" depart="44.54" departLane="best" departSpeed="max" from="-10240320#1" to="10236359#2"/>
    <trip id="bus84" type="bus_bus" depart="45.08" departLane="best" from="61115593#5" to="-10234101#2"/>
    <trip id="bus85" type="bus_bus" depart="45.61" departLane="best" from="-686158891#2" to="10248996#6"/>
    <trip id="bus86" type="bus_bus" depart="46.15" departLane="best" departSpeed="max" from="10249075#0" to="-10240839#1"/>
    <trip id="bus87" type="bus_bus" depart="46.69" departLane="best" from="-10231694#10" to="81825388#1"/>
    <trip id="bus88" type="bus_bus" depart="47.22" departLane="best" departSpeed="max" from="-353013183#1" to="10224574#9"/>
    <trip id="bus89" type="bus_bus" depart="47.76" departLane="best" from="10242068#1" to="10240534#1"/>
    <trip id="bus90" type="bus_bus" depart="48.30" departLane="best" from="-847850419#16" to="-10233221#5"/>
    <trip id="bus91" type="bus_bus" depart="48.83" departLane="best" from="299784304#7" to="-231365239#10"/>
    <trip id="bus92" type="bus_bus" depart="49.37" departLane="best" from="-1030551492#0" to="10246754#3"/>
    <trip id="bus93" type="bus_bus" depart="49.91" departLane="best" departSpeed="max" from="-10238784#1" to="925332622#1"/>
    <trip id="bus94" type="bus_bus" depart="50.44" departLane="best" from="346673263#5" to="10248962#1"/>
    <trip id="bus95" type="bus_bus" depart="50.98" departLane="best" departSpeed="max" from="-10243066#1" to="564771726#2"/>
    <trip id="bus96" type="bus_bus" depart="51.51" departLane="best" from="-525236413#1" to="28474650#8"/>
    <trip id="bus97" type="bus_bus" depart="52.05" departLane="best" from="10225905#11" to="-10228431#24"/>
    <trip id="bus98" type="bus_bus" depart="52.59" departLane="best" from="94797608#0" to="1360499680#1"/>
    <trip id="bus99" type="bus_bus" depart="53.12" departLane="best" from="793138965" to="570838291#1"/>
    <trip id="bus100" type="bus_bus" depart="53.66" departLane="best" from="1299078716#4" to="10239038#10"/>
    <trip id="bus101" type="bus_bus" depart="54.20" departLane="best" from="-753157011#6" to="-10243142"/>
    <trip id="bus102" type="bus_bus" depart="54.73" departLane="best" departSpeed="max" from="-297282968#1" to="-10229196#1"/>
    <trip id="bus103" type="bus_bus" depart="55.27" departLane="best" departSpeed="max" from="-184276058#1" to="847850419#14"/>
    <trip id="bus104" type="bus_bus" depart="55.81" departLane="best" from="-10244310#0" to="10248994"/>
    <trip id="bus105" type="bus_bus" depart="56.34" departLane="best" departSpeed="max" from="-561623007#8" to="-790916841#1"/>
    <trip id="bus106" type="bus_bus" depart="56.88" departLane="best" from="751192766" to="925332621"/>
    <trip id="bus107" type="bus_bus" depart="57.42" departLane="best" from="10226285#1" to="10244280#3"/>
    <trip id="bus108" type="bus_bus" depart="57.95" departLane="best" from="-10236711#8" to="-1105213812#0"/>
    <trip id="bus109" type="bus_bus" depart="58.49" departLane="best" from="793138957" to="10234638#1"/>
    <trip id="bus110" type="bus_bus" depart="59.03" departLane="best" from="-10225208#3" to="10246746#0"/>
    <trip id="bus111" type="bus_bus" depart="59.56" departLane="best" from="-10228218#1" to="10234858#5"/>
    <trip id="bus112" type="bus_bus" depart="60.10" departLane="best" from="-81827930#3" to="231365239#27"/>
    <trip id="bus113" type="bus_bus" depart="60.64" departLane="best" from="-10236899#2" to="765853000#0"/>
    <trip id="bus114" type="bus_bus" depart="61.17" departLane="best" departSpeed="max" from="-10230053#1" to="-10240427#11"/>
    <trip id="bus115" type="bus_bus" depart="61.71" departLane="best" from="-10230125#6" to="10240598#4"/>
    <trip id="bus116" type="bus_bus" depart="62.25" departLane="best" from="-10241593#3" to="-10235269#0"/>
    <trip id="bus117" type="bus_bus" depart="62.78" departLane="best" from="33105434#2" to="-10246623#3"/>
    <trip id="bus118" type="bus_bus" depart="63.32" departLane="best" from="10230066#2" to="10237357#1"/>
    <trip id="bus119" type="bus_bus" depart="63.86" departLane="best" departSpeed="max" from="-346361429#2" to="10234826"/>
    <trip id="bus120" type="bus_bus" depart="64.39" departLane="best" from="-10187220#1" to="634121131#1-AddedOffRampEdge"/>
    <trip id="bus121" type="bus_bus" depart="64.93" departLane="best" departSpeed="max" from="-10239769" to="10244002"/>
    <trip id="bus122" type="bus_bus" depart="65.47" departLane="best" departSpeed="max" from="-10241947#1" to="570142812#1"/>
    <trip id="bus123" type="bus_bus" depart="66.00" departLane="best" from="-10237573#1" to="119006768#1"/>
    <trip id="bus124" type="bus_bus" depart="66.54" departLane="best" from="-10248601#8" to="10246931#11"/>
    <trip id="bus125" type="bus_bus" depart="67.08" departLane="best" from="-10229549#0" to="10212509#2"/>
    <trip id="bus126" type="bus_bus" depart="67.61" departLane="best" from="-94456274#35" to="925332636#1"/>
    <trip id="bus127" type="bus_bus" depart="68.15" departLane="best" from="-10229598#21" to="10243114#1"/>
    <trip id="bus128" type="bus_bus" depart="68.69" departLane="best" from="-10244310#0" to="634107013#0"/>
    <trip id="bus129" type="bus_bus" depart="69.22" departLane="best" from="31837729#1" to="339683231#1"/>
    <trip id="bus130" type="bus_bus" depart="69.76" departLane="best" from="-1270710928#0" to="10238237#23"/>
    <trip id="bus131" type="bus_bus" depart="70.30" departLane="best" from="1210607054#2" to="10242965#1"/>
    <trip id="bus132" type="bus_bus" depart="70.83" departLane="best" from="10231919#20" to="-886357238#5"/>
    <trip id="bus133" type="bus_bus" depart="71.37" departLane="best" from="10236172#9" to="10224184#4"/>
    <trip id="bus134" type="bus_bus" depart="71.91" departLane="best" from="-1098862380#1" to="-117921988#1"/>
    <trip id="bus135" type="bus_bus" depart="72.44" departLane="best" from="-10237252#1" to="682493012#0"/>
    <trip id="bus136" type="bus_bus" depart="72.98" departLane="best" departSpeed="max" from="-10235083#1" to="-10234866#0"/>
    <trip id="bus137" type="bus_bus" depart="73.52" departLane="best" departSpeed="max" from="-10232495#1" to="-10231956"/>
    <trip id="bus138" type="bus_bus" depart="74.05" departLane="best" from="-10244972#0" to="10236359#0"/>
    <trip id="bus139" type="bus_bus" depart="74.59" departLane="best" from="10241092#1" to="-10241656"/>
    <trip id="bus140" type="bus_bus" depart="75.13" departLane="best" from="10234649#13" to="-10248205#0"/>
    <trip id="bus141" type="bus_bus" depart="75.66" departLane="best" from="-765642983#0" to="467514352"/>
    <trip id="bus142" type="bus_bus" depart="76.20" departLane="best" from="1268825182#11" to="-10232159#1"/>
    <trip id="bus143" type="bus_bus" depart="76.74" departLane="best" departSpeed="max" from="-353013183#1" to="-10248890#15"/>
    <trip id="bus144" type="bus_bus" depart="77.27" departLane="best" from="10192276#3" to="10248650#11"/>
    <trip id="bus145" type="bus_bus" depart="77.81" departLane="best" from="10234849#1" to="-10248066#7"/>
    <trip id="bus146" type="bus_bus" depart="78.35" departLane="best" from="10243593#1" to="10231857"/>
    <trip id="bus147" type="bus_bus" depart="78.88" departLane="best" from="-36689204#4" to="-10224353#9"/>
    <trip id="bus148" type="bus_bus" depart="79.42" departLane="best" from="10229703#1" to="-346477414#3"/>
    <trip id="bus149" type="bus_bus" depart="79.96" departLane="best" from="413213007" to="10231331#11"/>
    <trip id="bus150" type="bus_bus" depart="80.49" departLane="best" from="1213751706#0" to="10234783#1"/>
    <trip id="bus151" type="bus_bus" depart="81.03" departLane="best" from="-10236102#14" to="-10235942#1"/>
    <trip id="bus152" type="bus_bus" depart="81.57" departLane="best" from="-10247873#3" to="413240394#6"/>
    <trip id="bus153" type="bus_bus" depart="82.10" departLane="best" from="10248844#29" to="28376059#1"/>
    <trip id="bus154" type="bus_bus" depart="82.64" departLane="best" from="36689200#0" to="-10242577#1"/>
    <trip id="bus155" type="bus_bus" depart="83.18" departLane="best" departSpeed="max" from="-10242965#1" to="-10233891"/>
    <trip id="bus156" type="bus_bus" depart="83.71" departLane="best" from="-10247368#7" to="-346643179#0"/>
    <trip id="bus157" type="bus_bus" depart="84.25" departLane="best" from="-32123778#2" to="-10237406#3"/>
    <trip id="bus158" type="bus_bus" depart="84.79" departLane="best" from="10236711#13" to="610123455#1"/>
    <trip id="bus159" type="bus_bus" depart="85.32" departLane="best" from="230345099#5" to="81814337#0"/>
    <trip id="bus160" type="bus_bus" depart="85.86" departLane="best" from="-1030549856#4" to="34402810"/>
    <trip id="bus161" type="bus_bus" depart="86.39" departLane="best" departSpeed="max" from="-10225418" to="10245824#1"/>
    <trip id="bus162" type="bus_bus" depart="86.93" departLane="best" from="-10249047#15" to="611648953#1"/>
    <trip id="bus163" type="bus_bus" depart="87.47" departLane="best" from="10248962#10" to="-299712465#3"/>
    <trip id="bus164" type="bus_bus" depart="88.00" departLane="best" from="1030549856#4" to="-10248550#7"/>
    <trip id="bus165" type="bus_bus" depart="88.54" departLane="best" departSpeed="max" from="10248195" to="-10234337#7"/>
    <trip id="bus166" type="bus_bus" depart="89.08" departLane="best" from="-269663726#3" to="28223224#1"/>
    <trip id="bus167" type="bus_bus" depart="89.61" departLane="best" from="-10240805#1" to="1213751797#0"/>
    <trip id="bus168" type="bus_bus" depart="90.15" departLane="best" from="-583351674#2" to="-1210604234#10"/>
    <trip id="bus169" type="bus_bus" depart="90.69" departLane="best" from="10248842#0" to="10244637#1"/>
    <trip id="bus170" type="bus_bus" depart="91.22" departLane="best" from="-10225324#2" to="-10240914#8"/>
    <trip id="bus171" type="bus_bus" depart="91.76" departLane="best" from="10248962#37" to="-299784304#13"/>
    <trip id="bus172" type="bus_bus" depart="92.30" departLane="best" from="791097214#0" to="-10248962#3"/>
    <trip id="bus173" type="bus_bus" depart="92.83" departLane="best" from="-10235161#4" to="-626430917#3"/>
    <trip id="bus174" type="bus_bus" depart="93.37" departLane="best" departSpeed="max" from="82360367" to="10230190#3"/>
    <trip id="bus175" type="bus_bus" depart="93.91" departLane="best" from="-637274092#4" to="-10234865#4"/>
    <trip id="bus176" type="bus_bus" depart="94.44" departLane="best" from="796684979#1" to="10239866#3"/>
    <trip id="bus177" type="bus_bus" depart="94.98" departLane="best" from="766118246#5" to="-10248463#0"/>
    <trip id="bus178" type="bus_bus" depart="95.52" departLane="best" departSpeed="max" from="-10232589" to="82253108#1"/>
    <trip id="bus179" type="bus_bus" depart="96.05" departLane="best" from="10241974" to="-1264402095#2"/>
    <trip id="bus180" type="bus_bus" depart="96.59" departLane="best" from="10231335#10" to="10228431#23"/>
    <trip id="bus181" type="bus_bus" depart="97.13" departLane="best" from="229715018#10" to="10234357"/>
    <trip id="bus182" type="bus_bus" depart="97.66" departLane="best" from="-10187236#2" to="568219148#18"/>
    <trip id="bus183" type="bus_bus" depart="98.20" departLane="best" from="10224995#2" to="10244326#4"/>
    <trip id="bus184" type="bus_bus" depart="98.74" departLane="best" from="10243681#4" to="10240384#1"/>
    <trip id="bus185" type="bus_bus" depart="99.27" departLane="best" from="-1264402095#2" to="-10230016#5"/>
    <trip id="bus186" type="bus_bus" depart="99.81" departLane="best" from="-10237309#1" to="229033070#16"/>
    <trip id="bus187" type="bus_bus" depart="100.35" departLane="best" from="-10248521#1" to="231243098#12"/>
    <trip id="bus188" type="bus_bus" depart="100.88" departLane="best" from="-10241130#0" to="119006832#1"/>
    <trip id="bus189" type="bus_bus" depart="101.42" departLane="best" departSpeed="max" from="-10247964" to="-705606770#8"/>
    <trip id="bus190" type="bus_bus" depart="101.96" departLane="best" from="299784304#28" to="1103526527#1"/>
    <trip id="bus191" type="bus_bus" depart="102.49" departLane="best" departSpeed="max" from="-10234671#1" to="-766078952#0"/>
    <trip id="bus192" type="bus_bus" depart="103.03" departLane="best" from="-637274121#2" to="10240839#5"/>
    <trip id="bus193" type="bus_bus" depart="103.57" departLane="best" from="-39255600#8" to="10237267#1"/>
    <trip id="bus194" type="bus_bus" depart="104.10" departLane="best" departSpeed="max" from="-10247183#3" to="10231429#1"/>
    <trip id="bus195" type="bus_bus" depart="104.64" departLane="best" departSpeed="max" from="-10187170#1" to="1030754720"/>
    <trip id="bus196" type="bus_bus" depart="105.18" departLane="best" from="-36957862#1" to="10234649#15"/>
    <trip id="bus197" type="bus_bus" depart="105.71" departLane="best" from="10236302#1" to="10224414#9"/>
    <trip id="bus198" type="bus_bus" depart="106.25" departLane="best" departSpeed="max" from="-476000649#1" to="-10243142"/>
    <trip id="bus199" type="bus_bus" depart="106.79" departLane="best" from="-705604626#1" to="452153327#2"/>
    <trip id="bus200" type="bus_bus" depart="107.32" departLane="best" from="10248844#25" to="-10239355"/>
    <trip id="bus201" type="bus_bus" depart="107.86" departLane="best" from="-10230503#5" to="10228868"/>
    <trip id="bus202" type="bus_bus" depart="108.40" departLane="best" from="10234577#25" to="230356021#4"/>
    <trip id="bus203" type="bus_bus" depart="108.93" departLane="best" from="1103204109#2" to="10246899#3"/>
    <trip id="bus204" type="bus_bus" depart="109.47" departLane="best" from="10237625#0" to="-10244306#0"/>
    <trip id="bus205" type="bus_bus" depart="110.01" departLane="best" from="-10239398#1" to="-10225692#4"/>
    <trip id="bus206" type="bus_bus" depart="110.54" departLane="best" departSpeed="max" from="-10242579" to="10225205#37"/>
    <trip id="bus207" type="bus_bus" depart="111.08" departLane="best" departSpeed="max" from="1303193251" to="10230120#1"/>
    <trip id="bus208" type="bus_bus" depart="111.62" departLane="best" from="-32866547#2" to="10237805#1"/>
    <trip id="bus209" type="bus_bus" depart="112.15" departLane="best" from="-10239002#0" to="10242200#1"/>
    <trip id="bus210" type="bus_bus" depart="112.69" departLane="best" from="-790916866" to="10246421#1"/>
    <trip id="bus211" type="bus_bus" depart="113.23" departLane="best" from="10236504#6" to="10212509#0"/>
    <trip id="bus212" type="bus_bus" depart="113.76" departLane="best" from="10244637#4" to="-10248584#7"/>
    <trip id="bus213" type="bus_bus" depart="114.30" departLane="best" departSpeed="max" from="-10232490#1" to="-791097212"/>
    <trip id="bus214" type="bus_bus" depart="114.84" departLane="best" departSpeed="max" from="-10237743#2" to="753601658#6"/>
    <trip id="bus215" type="bus_bus" depart="115.37" departLane="best" departSpeed="max" from="-925332630" to="-10228431#11"/>
    <trip id="bus216" type="bus_bus" depart="115.91" departLane="best" from="-10242961#0" to="-231243098#21"/>
    <trip id="bus217" type="bus_bus" depart="116.45" departLane="best" from="-564685999#1" to="1103213885#5"/>
    <trip id="bus218" type="bus_bus" depart="116.98" departLane="best" from="10237387#1" to="888361761#1"/>
    <trip id="bus219" type="bus_bus" depart="117.52" departLane="best" from="10230155#17" to="744456762"/>
    <trip id="bus220" type="bus_bus" depart="118.06" departLane="best" departSpeed="max" from="343802206" to="10237127#1"/>
    <trip id="bus221" type="bus_bus" depart="118.59" departLane="best" from="-10241123#11" to="10227045"/>
    <trip id="bus222" type="bus_bus" depart="119.13" departLane="best" from="1197094414#3" to="10231426"/>
    <trip id="bus223" type="bus_bus" depart="119.66" departLane="best" from="36313407" to="10246438"/>
    <trip id="bus224" type="bus_bus" depart="120.20" departLane="best" departSpeed="max" from="-705606796" to="10247773#5"/>
    <trip id="bus225" type="bus_bus" depart="120.74" departLane="best" from="-10242891#4" to="10238280#1"/>
    <trip id="bus226" type="bus_bus" depart="121.27" departLane="best" from="10246316#3" to="10229209#37"/>
    <trip id="bus227" type="bus_bus" depart="121.81" departLane="best" from="10234158#2" to="-10248853#0"/>
    <trip id="bus228" type="bus_bus" depart="122.35" departLane="best" from="-10229936#1" to="102774147#1"/>
    <trip id="bus229" type="bus_bus" depart="122.88" departLane="best" from="-10244899#1" to="-127838675#3"/>
    <trip id="bus230" type="bus_bus" depart="123.42" departLane="best" departSpeed="max" from="10225119#0" to="10236899#42"/>
    <trip id="bus231" type="bus_bus" depart="123.96" departLane="best" from="-10241261" to="10241972#3"/>
    <trip id="bus232" type="bus_bus" depart="124.49" departLane="best" from="10240320#0" to="10229598#13"/>
    <trip id="bus233" type="bus_bus" depart="125.03" departLane="best" from="-32615003" to="-10230910#0"/>
    <trip id="bus234" type="bus_bus" depart="125.57" departLane="best" from="-33105434#2" to="10242184#0"/>
    <trip id="bus235" type="bus_bus" depart="126.10" departLane="best" from="-346496696#2" to="467514348#1"/>
    <trip id="bus236" type="bus_bus" depart="126.64" departLane="best" from="10229318#34" to="10242190#1"/>
    <trip id="bus237" type="bus_bus" depart="127.18" departLane="best" from="175387010#1" to="10248137#1"/>
    <trip id="bus238" type="bus_bus" depart="127.71" departLane="best" from="228591666#0" to="-10213732#1"/>
    <trip id="bus239" type="bus_bus" depart="128.25" departLane="best" from="-1196892037#0" to="10247030#5"/>
    <trip id="bus240" type="bus_bus" depart="128.79" departLane="best" from="-1352622014" to="747965413#2"/>
    <trip id="bus241" type="bus_bus" depart="129.32" departLane="best" from="-346361429#0" to="-10246669"/>
    <trip id="bus242" type="bus_bus" depart="129.86" departLane="best" from="10225692#5" to="10236172#37"/>
    <trip id="bus243" type="bus_bus" depart="130.40" departLane="best" from="10240565#7" to="10243727#4"/>
    <trip id="bus244" type="bus_bus" depart="130.93" departLane="best" from="44740447#1" to="-10225905#28"/>
    <trip id="bus245" type="bus_bus" depart="131.47" departLane="best" from="1030549856#4" to="10240887"/>
    <trip id="bus246" type="bus_bus" depart="132.01" departLane="best" from="-31838249#14" to="10238946#1"/>
    <trip id="bus247" type="bus_bus" depart="132.54" departLane="best" from="637274124#0" to="10235958#3"/>
    <trip id="bus248" type="bus_bus" depart="133.08" departLane="best" from="10233511#12" to="10225810#2"/>
    <trip id="bus249" type="bus_bus" depart="133.62" departLane="best" from="-27805261#5" to="10233075"/>
    <trip id="bus250" type="bus_bus" depart="134.15" departLane="best" from="-10225652#2" to="10238642#1"/>