<?xml version="1.0" encoding="UTF-8"?>

<!-- generated on 2025-03-28 20:34:36.952567 by osmWebWizard.py UNKNOWN
<configuration>
    <net-file value="/home/cam/Sumo/2025-03-28-20-32-12/osm.net.xml.gz"/>
    <ptlines-file value="/home/cam/Sumo/2025-03-28-20-32-12/osm_ptlines.xml"/>
    <ptstops-file value="/home/cam/Sumo/2025-03-28-20-32-12/osm_stops.add.xml"/>
    <output-file value="/home/cam/Sumo/2025-03-28-20-32-12/osm_pt.rou.xml"/>
    <stopinfos-file value="/home/cam/Sumo/2025-03-28-20-32-12/stopinfos.xml"/>
    <routes-file value="/home/cam/Sumo/2025-03-28-20-32-12/vehroutes.xml"/>
    <trips-file value="/home/cam/Sumo/2025-03-28-20-32-12/trips.trips.xml"/>
    <min-stops value="0"/>
    <extend-to-fringe value="True"/>
    <random-begin value="True"/>
    <seed value="42"/>
    <ignore-errors value="True"/>
    <vtype-prefix value="pt_"/>
    <verbose value="True"/>
</configuration>
-->

<routes xmlns:xsi="http://www.w3.org/2001/XMLSchema-instance" xsi:noNamespaceSchemaLocation="http://sumo.dlr.de/xsd/routes_file.xsd">
    <vType id="pt_bus" vClass="bus"/>
    <vType id="pt_tram" vClass="tram"/>
    <vType id="pt_train" vClass="rail"/>
    <vType id="pt_subway" vClass="subway"/>
    <vType id="pt_light_rail" vClass="rail_urban"/>
    <vType id="pt_monorail" vClass="rail_urban"/>
    <vType id="pt_trolleybus" vClass="bus"/>
    <vType id="pt_minibus" vClass="bus"/>
    <vType id="pt_share_taxi" vClass="taxi"/>
    <vType id="pt_aerialway" vClass="cable_car" length="2.5" width="2" personCapacity="4"/>
    <vType id="pt_ferry" vClass="ship"/>
    <route id="pt_bus_862:0" color="blue" edges="463704558#1 -262148878#6 -262148878#5 -262148878#2 -1210607046#2 -1210607046#0 -1210607046#0 -413212997#5 -413212997#4 -413212997#3 -413212997#1 -413212997#0 -1095499050#3 -1095499050#2 -28223397#2 
-28223397#0 1095496457 28223395 28223391#0 866663396 866663395 1224012774 28223366 230344362#0 230344361#0 230377854#0 230377854#1 413213003 413237571#1 346646715 1030237289 346646681#0 346646681#1 28376059#0 28376059#1 28376058 938850603#0 938850603#1 938850603#2 938850603#3 10187234#0 10187234#1 10236416 346646701 566551617 566551616#1 566551616#2 566551616#3 566551616#4 566551616#5 566551615#0 566551615#1 566551615#2 566551615#3 566551615#4 566551615#5 1237615512#0 1237615512#1 28474650#1 28474650#2 28474650#3 28474650#4 28474650#5 28474650#6 28474650#8 28474650#9 28474650#10 28474650#11 28474650#12 28474650#13 28474650#14 28474650#15 1075957450#1 1075957450#2 45877227#0 45877227#1 45877227#2 45877227#3 45877227#5 45877227#6 45877227#8 45877227#9 45877227#10 45877227#11 45877227#12 45877227#13 45877227#14 45877227#15 45877227#16 45877227#17 45877227#18 45877227#19 1237615511#2 1237615510#1 1237615510#2 1237615510#3 1237615510#4 1237615510#5 1237615510#6 1237615510#7 1237615510#8 1237615510#9 1237615510#10 1237615510#12 1237615510#13 1237615509#1 45877229#0 45877229#1 45877225#1 45877225#2 45877226#1 45877226#2 45877226#3 45877226#4 45877226#5 45877226#6 568219148#0 568219148#1 568219148#2 568219148#3 568219148#4 568219148#5 568219148#6 568219148#7 568219148#9 568219148#10 568219148#11 568219148#12 568219148#13 568219148#14 568219148#15 568219148#16 568219148#17 568219148#18 568219148#19 568219148#20 568219148#21 568219148#22 568219148#23 568219148#24 -36872255#5 -36872255#4 -36872255#3 -36872255#2 -36872255#1 -36872255#0 -600788076#13 -600788076#12 -600788076#11 -600788076#10 -600788076#9 -600788076#7 -600788076#6 -600788076#2 
-600788076#0 1133136669 600788073#0 600788021#1 600788038#0 600788038#1 600788020 1133136678#0 -10234805#19 -10234805#17 -10234805#16 -10234805#15 -10234805#14 -10234805#13 -10234805#12 -10234805#11 -10234805#9 -10234805#8 -10234805#7 -10234805#6 -10234805#5 -10234805#4 -10234805#3 -10234805#1 10235902#0 10235902#1 10235902#2 10235902#4 10235902#5 10235902#6 10235902#8 10235902#9 10235902#10 10235902#11 10235902#12 10235902#15 10235902#17 10235902#18 10235902#19 10235902#20 -92350819#5 -92350819#4 -92350819#3 -92350819#2 -92350819#1 -92350819#0 -231247767 -10231865#9 -10231865#8 -10231865#7 -10231865#6 -10231865#5 -10231865#4 -10231865#3 -10231865#2 -10231865#1 -10231865#0 231247777#0 231247777#1 231247777#3 231247777#4 231247777#5 231247777#6 -684690130#20 -684690130#19 -684690130#18 -684690130#17 -684690130#14 -684690130#13 -684690130#12 -684690130#11 -684690130#10 -684690130#9 -684690130#7 -684690130#6 -684690130#4 -684690130#3 -684690130#2 -684690130#1 -10236172#39 -10236172#38 -10236172#37 -10236172#36 -10236172#33 -10236172#32 -10236172#31 -10236172#30 -10236172#29 -10236172#27 -10236172#25 -10236172#24 -10236172#22 -10236172#21 -10236172#20 -10236172#19 -10236172#18 -10236172#17 -10236172#16 -10236172#15 -10236172#14 -10236172#12 -10236172#11 -10236172#9 -10236172#8 -10236172#6 -10236172#5 -10236172#4 -10236172#3 -10236172#1 10232468#1 10232468#2 10232468#3 10232468#4 10232468#5 10232468#7 10232468#8 10232468#9 10232468#10 10232468#11 10232468#12 599894830#0 599894829#0 599894829#1 599894831#0 599894831#1 599894831#2 599894831#3 599894831#5 599894831#6 599894831#7 599894831#8 599894831#9 599894827#0 599894826#1 599894825#0 599894825#1 909694985#0 909694985#1 909694985#2 599894823#0 599894823#1 599894822#0 231243108#1 231243108#2 231243108#3 231243108#4 231243108#6 231243108#7 231243108#8 231243108#9 231243108#10 231243108#11 231247786#0 231247786#1 231247786#2 1274723858#0 1274723858#1 1274723858#2 1274723858#3 776681829#1 776681829#3 776681829#4 776681829#5 776681829#5 10244330#1 10244330#2 1103204099#0 634114924#1 882705681#0 1103204095#1 231243098#0 231243098#1 231243098#2 231243098#3 231243098#4 231243098#5 231243098#7 231243098#8 231243098#9 231243098#10 231243098#12 231243098#13 231243098#14 231243098#15 231243098#16  231243098#17 231243098#18 231243098#19 231243098#20 231243098#21 231243098#22 231243098#24 231243098#25 231243098#26 1103213889#0 1103213889#1 686158892#1 686158892#2 686158892#3 686158891#2 686158891#3 686158891#4 686158890#0 686158889#1 80377733#1 80377733#2 80377733#3 10243486#0 10243486#1 10243486#2 10243486#3 10243486#4 10243486#5 10243486#6 10243486#7 10243486#8 10243486#9 10243486#10 10243486#11 686158292 686158290 686158296#1 686158289#0 -599894827#0
" >
        <stop busStop="9932608366" duration="20" until="48.0"/> <!-- University Place Station (EB) -->
        <stop busStop="8927848924" duration="20" until="48.0"/> <!-- Fulton Library (EB) -->
        <stop busStop="8544780328" duration="20" until="48.0"/> <!-- 919 N 980 W -->
        <stop busStop="4145236918" duration="20" until="48.0"/> <!-- 1600 N & State St -->
        <stop busStop="" duration="20" until="48.0"/> <!-- Canyon Park Technology Center -->
        <stop busStop="" duration="20" until="48.0"/> <!-- Center St & 800 E -->
        <stop busStop="9246780410" duration="20" until="48.0"/> <!-- University Place Station (EB) -->
    </route>
    <flow id="pt_bus_862:0" type="pt_bus" route="pt_bus_862:0" begin="132.0" end="3732.0" period="600" line="862:0" >
        <param key="completeness" value="0.50"/>
    </flow>
</routes>
    