<?xml version="1.0" encoding="UTF-8"?>

<!-- generated on 2025-03-18 15:31:41.556785 by osmWebWizard.py v1_20_0+0000-96efa4d36
<configuration>
    <net-file value="/home/cam/sumo/tools/2025-03-18-15-30-49/osm.net.xml.gz"/>
    <ptlines-file value="/home/cam/sumo/tools/2025-03-18-15-30-49/osm_ptlines.xml"/>
    <ptstops-file value="/home/cam/sumo/tools/2025-03-18-15-30-49/osm_stops.add.xml"/>
    <output-file value="/home/cam/sumo/tools/2025-03-18-15-30-49/osm_pt.rou.xml"/>
    <stopinfos-file value="/home/cam/sumo/tools/2025-03-18-15-30-49/stopinfos.xml"/>
    <routes-file value="/home/cam/sumo/tools/2025-03-18-15-30-49/vehroutes.xml"/>
    <trips-file value="/home/cam/sumo/tools/2025-03-18-15-30-49/trips.trips.xml"/>
    <min-stops value="0"/>
    <extend-to-fringe value="True"/>
    <random-begin value="True"/>
    <seed value="42"/>
    <ignore-errors value="True"/>
    <vtype-prefix value="pt_"/>
    <verbose value="True"/>
</configuration>
-->

<routes xmlns:xsi="http://www.w3.org/2001/XMLSchema-instance" xsi:noNamespaceSchemaLocation="http://sumo.dlr.de/xsd/routes_file.xsd">
    <vType id="pt_bus" vClass="bus"/>
    <vType id="pt_tram" vClass="tram"/>
    <vType id="pt_train" vClass="rail"/>
    <vType id="pt_subway" vClass="subway"/>
    <vType id="pt_light_rail" vClass="rail_urban"/>
    <vType id="pt_monorail" vClass="rail_urban"/>
    <vType id="pt_trolleybus" vClass="bus"/>
    <vType id="pt_minibus" vClass="bus"/>
    <vType id="pt_share_taxi" vClass="taxi"/>
    <vType id="pt_aerialway" vClass="cable_car" length="2.5" width="2" personCapacity="4"/>
    <vType id="pt_ferry" vClass="ship"/>
    <route id="pt_train_750:0" color="164,34,142" edges="100198877#2" >
        <stop busStop="3020209235" duration="20" until="183.0"/> <!-- Orem Central -->
    </route>
    <route id="pt_bus_UVX:0" color="0,145,208" edges="1028561249#0 -1028561248#0 -36322646#9 -36322646#8 -36322646#7 -36322646#6 -36322646#4 -36322646#3 -36322646#2 -36322646#1 -36322646#0 -1028561247#1 -1028561247#0 36322642#1 36322642#4 36322642#5 36322642#6 1029175181#0 -1031068106#1 -1031068106#0 -10244326#5 -10244326#4 -10244326#3 -10244326#2 -10244326#1 -10244326#0 -1031068107#3 -1031068107#2 1001839200#1 10238291#1 10238291#2 1030226943#0 1030226943#1 413237561#0 413237561#2 1343086010#1 1343086009 1001839214#0 1001839213#1 1001839211#0 776681829#1 776681829#3 776681829#4 776681829#5 10244330#0 10244330#1 10244330#2 1103204099#0 231243103#1 231243103#2 231243103#3 231243103#4 231243103#8 231243103#9 231243103#10 231243103#11 231243103#13 144350638#0 144350638#1 144350638#2 144350638#4 144350638#5 144350638#6 144350638#7 599840849#1 599840849#1-AddedOffRampEdge 599840849#2 882705696#0 882705696#1 144350637 230377848#0 230344368 413213007 131702935#0 40664629 866663391 866663389 177427971#0 177427971#1-AddedOnRampEdge 177427971#1 -1095496457 -351724691#10 -351724691#9 -351724691#8 544659086#1 544659086#4 544659086#5 262148878#6 -463704558#1 -463704558#0 346643179#0 346643179#1 346643179#2 346643179#3 463704557#1 1225221152#1" >
        <stop busStop="-9932608377" duration="20" until="90.0"/> <!-- BYU North Campus -->
    </route>
    <route id="pt_bus_831:0" color="0,85,164" edges="1225221152#1 463704558#0 463704558#1 -262148878#6 -544659086#5 -544659086#4 -544659086#1 351724691#8 351724691#9 351724691#10 1095496457 28223395 28223395-AddedOffRampEdge 607175019#1 28223391#0 866663396 866663395 1224012774 28223366 230344362#0 230344361#0 230377854#0 230377854#1 28376044 231247790 477393513#0 477393513#1 477393511 1030237289 346646681#0 346646681#1 1030561465#0 1030561465#1 28376056#0 28376056#1 413212998#0 413212998#2 230345100 230377849 418454992 102605736#0 882705697 792414436 882705688#0 144350639#0 144350639#1 144350639#2 144350639#3 144350639#5 144350639#6 144350639#8 144350634#0 144350634#1 1036894577 1036894581#0 1036894581#4 1036894581#5 1103204100#0 1036897386#1 684673675#1 684673675#2 684673675#4 684673675#5 684673675#6 1001839216#1 732995485#0 10238292#1 413240396 413237568#0 413237568#1 413237568#2 413237568#3 1030237290#0 31929185#1 31929185#2-AddedOnRampEdge 31929185#2 31929185#4 -932976224#0" >
        <stop busStop="9932608367" duration="20" until="246.0"/> <!-- UVU Station -->
    </route>
    <route id="pt_bus_862:0" color="blue" edges="463704557#1 1225221152#1 463704558#0 463704558#1 -262148878#6 -544659086#5 -544659086#4 -544659086#1 351724691#8 351724691#9 351724691#10 1095496457 28223395 28223395-AddedOffRampEdge 607175019#1 28223391#0 866663396 866663395 1224012774 28223366 230344362#0 230344361#0 230377854#0 230377854#1 28376044 231247790 477393514 413237539 -39255600#8 -39255600#7 -39255600#6 -39255600#5 -39255600#4 -39255600#3 -39255600#1 -39255600#0 28337320#0 28337320#1 684661224#0 684661224#1 39255611#0 39255611#1 39255615#0 39255615#1 144350639#0 144350639#1 144350639#2 144350639#3 144350639#5 144350639#6 144350639#8 144350634#0 144350634#1 1036894577 1036894581#0 1036894581#4 1036894581#5 1103204100#0 1036897386#1 684673675#1 684673675#2 684673675#4 684673675#5 684673675#6 776681829#1 776681829#3 776681829#4 776681829#5" >
        <stop busStop="9932608366" duration="20" until="248.0"/> <!-- UVU Station -->
    </route>
    <route id="pt_train_750:1" color="164,34,142" edges="762329402#0 762329402#1 762329402#2 762329402#3 762329400#0 762329400#1 762329400#2 762329400#3 297896763#0 297896763#1 297896763#2 297896763#3 297896763#4 -298119548#0" >
        <stop busStop="3020209244" duration="20" until="207.0"/> <!-- Orem Central -->
    </route>
    <route id="pt_bus_UVX:1" color="0,145,208" edges="1225221152#1 463704558#0 463704558#1 -262148878#6 -544659086#5 -544659086#4 -544659086#1 351724691#8 351724691#9 351724691#10 1095496457 28223395 28223395-AddedOffRampEdge 607175019#1 28223391#0 866663396 866663395 1224012774 28223366 230344362#0 230344361#0 230377854#0 230377854#1 28376044 231247790 477393514 413237539 -39255600#8 -39255600#7 -39255600#6 -39255600#5 -39255600#4 -39255600#3 -39255600#1 -39255600#0 28337320#0 28337320#1 684661224#0 684661224#1 39255611#0 39255611#1 39255615#0 39255615#1 144350639#0 144350639#1 144350639#2 144350639#3 144350639#5 144350639#6 144350639#8 144350634#0 144350634#1 1036894577 1036894581#0 1036894581#4 1036894581#5 1103204100#0 1036897386#1 684673675#1 684673675#2 684673675#4 684673675#5 684673675#6 1001839216#1 732995485#0 10238292#1 413240396 413237568#0 413237568#1 413237568#2 413237568#3 1030237290#0 31929185#1 31929185#2-AddedOnRampEdge 31929185#2 31929185#4 1031068107#1 1031068107#3 10244326#0 10244326#1 10244326#2 10244326#3 10244326#4 10244326#5 1031068106#0 1031068106#1 10244332#1 10244332#2 1029175183#0 1029175182#1 1029175184#0 1028561247#0 1028561247#1 36322646#0 36322646#1 36322646#2 36322646#3 36322646#4 36322646#6 36322646#7 36322646#8 36322646#9 1028561248#0 -1028561249#0" >
        <stop busStop="9932608366" duration="20" until="223.0"/> <!-- UVU Station -->
    </route>
    <route id="pt_bus_831:1" color="0,85,164" edges="932976224#0 1001839200#1 10238291#1 10238291#2 1030226943#0 1030226943#1 413237561#0 413237561#2 1343086010#1 1343086009 1001839214#0 1001839213#1 1001839211#0 776681829#1 776681829#3 776681829#4 776681829#5 10244330#0 10244330#1 10244330#2 1103204099#0 231243103#1 231243103#2 231243103#3 231243103#4 231243103#8 231243103#9 231243103#10 231243103#11 231243103#13 144350638#0 144350638#1 144350638#2 144350638#4 144350638#5 144350638#6 144350638#7 599840849#1 599840849#1-AddedOffRampEdge 599840849#2 882705696#0 230344372#0 882705689 28376044 231247790 477393514 413237539 230346378#0 230346378#1 477393511 1030237289 346646681#0 346646681#1 1030561465#0 1030561465#1 28376056#0 28376056#1 230344367#0 230344367#1 413212996 413212995#0 413213007 131702935#0 40664629 866663391 866663389 177427971#0 177427971#1-AddedOnRampEdge 177427971#1 -1095496457 -351724691#10 -351724691#9 -351724691#8 544659086#1 544659086#4 544659086#5 262148878#6 -463704558#1 -463704558#0 346643179#0 346643179#1 346643179#2 346643179#3 463704557#1 1225221152#1" >
        <stop busStop="9932608366" duration="20" until="572.0"/> <!-- UVU Station -->
    </route>
    <flow id="pt_train_750:0" type="pt_train" route="pt_train_750:0" begin="406.0" end="4006.0" period="600" line="750:0" >
        <param key="name" value="UTA FrontRunner: Ogden =&gt; Provo"/>
        <param key="completeness" value="0.08"/>
    </flow>
    <flow id="pt_bus_UVX:0" type="pt_bus" route="pt_bus_UVX:0" begin="15.0" end="3615.0" period="600" line="UVX:0" >
        <param key="completeness" value="0.04"/>
    </flow>
    <flow id="pt_bus_831:0" type="pt_bus" route="pt_bus_831:0" begin="165.0" end="3765.0" period="600" line="831:0" >
        <param key="completeness" value="0.11"/>
    </flow>
    <flow id="pt_bus_862:0" type="pt_bus" route="pt_bus_862:0" begin="383.0" end="3983.0" period="600" line="862:0" >
        <param key="completeness" value="0.02"/>
    </flow>
    <flow id="pt_train_750:1" type="pt_train" route="pt_train_750:1" begin="535.0" end="4135.0" period="600" line="750:1" >
        <param key="name" value="UTA FrontRunner: Provo =&gt; Ogden"/>
        <param key="completeness" value="0.08"/>
    </flow>
    <flow id="pt_bus_UVX:1" type="pt_bus" route="pt_bus_UVX:1" begin="133.0" end="3733.0" period="600" line="UVX:1" >
        <param key="completeness" value="0.05"/>
    </flow>
    <flow id="pt_bus_831:1" type="pt_bus" route="pt_bus_831:1" begin="441.0" end="4041.0" period="600" line="831:1" >
        <param key="completeness" value="0.10"/>
    </flow>
</routes>
