<?xml version="1.0" encoding="UTF-8"?>

<!-- generated on 2025-03-18 15:31:28 by Eclipse SUMO netconvert Version 1.20.0
<configuration xmlns:xsi="http://www.w3.org/2001/XMLSchema-instance" xsi:noNamespaceSchemaLocation="http://sumo.dlr.de/xsd/netconvertConfiguration.xsd">

    <input>
        <type-files value="/home/cam/sumo/tools/../data/typemap/osmNetconvert.typ.xml,/home/cam/sumo/tools/../data/typemap/osmNetconvertAerialway.typ.xml"/>
        <osm-files value="osm_bbox.osm.xml.gz"/>
    </input>

    <output>
        <output-file value="osm.net.xml.gz"/>
        <output.street-names value="true"/>
        <output.original-names value="true"/>
        <ptstop-output value="osm_stops.add.xml"/>
        <ptline-output value="osm_ptlines.xml"/>
    </output>

    <projection>
        <proj.utm value="true"/>
    </projection>

    <processing>
        <geometry.remove value="true"/>
        <roundabouts.guess value="true"/>
    </processing>

    <tls_building>
        <tls.discard-simple value="true"/>
        <tls.join value="true"/>
        <tls.guess-signals value="true"/>
        <tls.default-type value="actuated"/>
    </tls_building>

    <ramp_guessing>
        <ramps.guess value="true"/>
    </ramp_guessing>

    <junctions>
        <junctions.join value="true"/>
        <junctions.corner-detail value="5"/>
    </junctions>

    <railway>
        <railway.topology.repair value="true"/>
    </railway>

</configuration>
-->

<additional xmlns:xsi="http://www.w3.org/2001/XMLSchema-instance" xsi:noNamespaceSchemaLocation="http://sumo.dlr.de/xsd/additional_file.xsd">
    <busStop id="-3020209235" name="Orem Central" lane="-298119547#2_0" startPos="62.26" endPos="262.26" friendlyPos="true">
        <access lane="-463704562#0_0" pos="67.63" length="26.25" friendlyPos="1"/>
        <access lane="463704562#0_0" pos="7.59" length="21.45" friendlyPos="1"/>
        <access lane="908255821#0_0" pos="2.97" length="23.36" friendlyPos="1"/>
        <access lane="908255821#1_0" pos="0.00" length="25.29" friendlyPos="1"/>
        <access lane="908255828#0_0" pos="10.96" length="8.20" friendlyPos="1"/>
    </busStop>
    <busStop id="-8542953531" name="1720 N / 550 W (WB)" lane="-10237309#5_0" startPos="40.26" endPos="55.26" friendlyPos="true"/>
    <busStop id="-8869926783" name="State St @ 1695 N" lane="-31838249#1_0" startPos="45.88" endPos="60.88" friendlyPos="true"/>
    <busStop id="-9932608377" name="BYU North Campus" lane="-36322646#4_0" startPos="17.56" endPos="32.56" friendlyPos="true" lines="UVX"/>
    <busStop id="3020209235" name="Orem Central" lane="100198877#2_0" startPos="2386.87" endPos="2586.87" friendlyPos="true" lines="750">
        <access lane="-463704562#0_0" pos="67.63" length="26.25" friendlyPos="1"/>
        <access lane="463704562#0_0" pos="7.59" length="21.45" friendlyPos="1"/>
        <access lane="908255821#0_0" pos="2.97" length="23.36" friendlyPos="1"/>
        <access lane="908255821#1_0" pos="0.00" length="25.29" friendlyPos="1"/>
        <access lane="908255828#0_0" pos="10.96" length="8.20" friendlyPos="1"/>
    </busStop>
    <busStop id="3020209244" name="Orem Central" lane="762329402#2_0" startPos="2546.35" endPos="2746.35" friendlyPos="true" lines="750">
        <access lane="1326180649#2_0" pos="62.01" length="31.52" friendlyPos="1"/>
        <access lane="1326180649#4_0" pos="79.13" length="17.80" friendlyPos="1"/>
        <access lane="1326180649#5_0" pos="0.00" length="21.03" friendlyPos="1"/>
        <access lane="1326180650#0_0" pos="0.20" length="18.22" friendlyPos="1"/>
        <access lane="1326180650#1_0" pos="0.20" length="12.74" friendlyPos="1"/>
    </busStop>
    <busStop id="423696136" name="BYU Stadium" lane="1029175182#1_0" startPos="15.67" endPos="30.67" friendlyPos="true"/>
    <busStop id="423696141" name="BYU Stadium" lane="36322642#1_0" startPos="109.66" endPos="124.66" friendlyPos="true"/>
    <busStop id="6863882459" name="University Place Station (WB)" lane="776681829#5_0" startPos="84.15" endPos="99.15" friendlyPos="true"/>
    <busStop id="6977275478" lane="362127372#11_0" startPos="18.63" endPos="33.63" friendlyPos="true"/>
    <busStop id="8542953530" name="1720 N / 550 W (EB)" lane="10237309#5_0" startPos="59.69" endPos="74.69" friendlyPos="true"/>
    <busStop id="8551552307" name="1720 N / State St (EB)" lane="10237309#1_0" startPos="8.41" endPos="23.41" friendlyPos="true"/>
    <busStop id="9246780410" name="University Place Station (EB)" lane="684673675#6_0" startPos="25.04" endPos="40.04" friendlyPos="true"/>
    <busStop id="9932488269" name="Orem Central Station" lane="1225221152#1_0" startPos="76.76" endPos="91.76" friendlyPos="true">
        <access lane="-463704558#0_0" pos="15.13" length="31.12" friendlyPos="1"/>
        <access lane="1095496254#1_0" pos="13.45" length="21.06" friendlyPos="1"/>
        <access lane="1095496257#1_0" pos="0.00" length="21.47" friendlyPos="1"/>
        <access lane="1326181743_0" pos="13.16" length="21.46" friendlyPos="1"/>
        <access lane="463704566#4_0" pos="5.45" length="24.45" friendlyPos="1"/>
    </busStop>
    <busStop id="9932488270" name="Orem Central Station" lane="1225221152#1_0" startPos="27.74" endPos="42.74" friendlyPos="true">
        <access lane="1326180649#3_0" pos="35.18" length="10.48" friendlyPos="1"/>
        <access lane="1326180649#4_0" pos="21.71" length="18.50" friendlyPos="1"/>
        <access lane="463704566#3_0" pos="30.07" length="46.55" friendlyPos="1"/>
        <access lane="463704566#4_0" pos="19.22" length="26.28" friendlyPos="1"/>
        <access lane="908255828#1_0" pos="13.35" length="40.92" friendlyPos="1"/>
    </busStop>
    <busStop id="9932488271" name="Orem Central Station (Bay E)" lane="1225221152#1_0" startPos="9.93" endPos="24.93" friendlyPos="true">
        <access lane="1326180649#3_0" pos="17.37" length="10.16" friendlyPos="1"/>
        <access lane="1326180649#4_0" pos="39.52" length="18.52" friendlyPos="1"/>
        <access lane="1326180655#2_0" pos="10.73" length="30.44" friendlyPos="1"/>
        <access lane="1326180657#1_0" pos="0.00" length="30.21" friendlyPos="1"/>
        <access lane="463704566#4_0" pos="37.03" length="26.17" friendlyPos="1"/>
    </busStop>
    <busStop id="9932488272" name="Orem Central Station (Bay F)" lane="463704557#1_0" startPos="97.35" endPos="112.35" friendlyPos="true">
        <access lane="1326180649#2_0" pos="69.28" length="10.49" friendlyPos="1"/>
        <access lane="1326180649#3_0" pos="0.00" length="17.12" friendlyPos="1"/>
        <access lane="1326180649#4_0" pos="68.04" length="16.54" friendlyPos="1"/>
        <access lane="1326180655#2_0" pos="10.73" length="10.61" friendlyPos="1"/>
        <access lane="1326180657#1_0" pos="0.00" length="10.82" friendlyPos="1"/>
    </busStop>
    <busStop id="9932488273" name="Orem Central Station" lane="463704557#1_0" startPos="78.45" endPos="93.45" friendlyPos="true">
        <access lane="1326180649#2_0" pos="46.79" length="9.14" friendlyPos="1"/>
        <access lane="1326180649#4_0" pos="81.69" length="30.00" friendlyPos="1"/>
        <access lane="1326180649#5_0" pos="10.93" length="17.92" friendlyPos="1"/>
        <access lane="1326180650#0_0" pos="0.00" length="28.34" friendlyPos="1"/>
        <access lane="463704566#1_0" pos="26.47" length="26.00" friendlyPos="1"/>
    </busStop>
    <busStop id="9932488274" name="Orem Central Station" lane="463704557#1_0" startPos="51.43" endPos="66.43" friendlyPos="true">
        <access lane="1326180648_0" pos="159.67" length="40.33" friendlyPos="1"/>
        <access lane="1326180649#1_0" pos="0.20" length="35.65" friendlyPos="1"/>
        <access lane="1326180649#2_0" pos="19.77" length="8.98" friendlyPos="1"/>
        <access lane="1326180649#5_0" pos="37.95" length="17.94" friendlyPos="1"/>
        <access lane="463704566#1_0" pos="53.50" length="25.51" friendlyPos="1"/>
    </busStop>
    <busStop id="9932608366" name="UVU Station" lane="477393514_0" startPos="37.47" endPos="52.47" friendlyPos="true" lines="UVX 862 831"/>
    <busStop id="9932608367" name="UVU Station" lane="477393511_0" startPos="112.29" endPos="127.29" friendlyPos="true" lines="831"/>
    <busStop id="9932608376" name="BYU North Campus" lane="36322646#4_0" startPos="46.22" endPos="61.22" friendlyPos="true"/>
    <busStop id="9932608378" name="University Pkwy / 400 W (EB)" lane="144350639#1_0" startPos="11.49" endPos="26.49" friendlyPos="true"/>
    <busStop id="9932608379" name="University Pkwy @ 50 E" lane="144350634#1_0" startPos="66.69" endPos="81.69" friendlyPos="true"/>
    <busStop id="9932608380" name="University Pkwy / Main St (WB)" lane="144350638#1_0" startPos="40.36" endPos="55.36" friendlyPos="true"/>
    <busStop id="9932608381" name="University Pkwy @ 2266 N" lane="1343086010#1_0" startPos="51.97" endPos="66.97" friendlyPos="true"/>
    <busStop id="9932608382" name="University Parkway @ 2167 N" lane="413237568#1_0" startPos="23.48" endPos="38.48" friendlyPos="true"/>
    <busStop id="9932608383" name="2230 North" lane="413237568#1_0" startPos="7.09" endPos="22.09" friendlyPos="true"/>
    <busStop id="9932608384" name="2230 North" lane="413237568#1_0" startPos="22.66" endPos="37.66" friendlyPos="true"/>
    <busStop id="9932608385" name="University Place" lane="684673675#2_0" startPos="265.46" endPos="280.46" friendlyPos="true"/>
    <busStop id="9932608386" name="University Place" lane="776681829#5_0" startPos="23.18" endPos="38.18" friendlyPos="true"/>
    <busStop id="9932608387" name="Lakeview" lane="144350638#6_0" startPos="183.05" endPos="198.05" friendlyPos="true"/>
    <busStop id="9932608388" name="Lakeview" lane="144350639#1_0" startPos="29.43" endPos="44.43" friendlyPos="true"/>
    <busStop id="9932608389" name="Main Street" lane="144350634#1_0" startPos="20.64" endPos="35.64" friendlyPos="true"/>
    <busStop id="9932608390" name="Main Street" lane="231243103#11_0" startPos="139.83" endPos="154.83" friendlyPos="true"/>
</additional>
