<?xml version="1.0" encoding="UTF-8"?>

<!-- generated on 2025-03-28 20:34:36.952567 by osmWebWizard.py UNKNOWN
<configuration>
    <net-file value="/home/cam/Sumo/2025-03-28-20-32-12/osm.net.xml.gz"/>
    <ptlines-file value="/home/cam/Sumo/2025-03-28-20-32-12/osm_ptlines.xml"/>
    <ptstops-file value="/home/cam/Sumo/2025-03-28-20-32-12/osm_stops.add.xml"/>
    <output-file value="/home/cam/Sumo/2025-03-28-20-32-12/osm_pt.rou.xml"/>
    <stopinfos-file value="/home/cam/Sumo/2025-03-28-20-32-12/stopinfos.xml"/>
    <routes-file value="/home/cam/Sumo/2025-03-28-20-32-12/vehroutes.xml"/>
    <trips-file value="/home/cam/Sumo/2025-03-28-20-32-12/trips.trips.xml"/>
    <min-stops value="0"/>
    <extend-to-fringe value="True"/>
    <random-begin value="True"/>
    <seed value="42"/>
    <ignore-errors value="True"/>
    <vtype-prefix value="pt_"/>
    <verbose value="True"/>
</configuration>
-->

<routes xmlns:xsi="http://www.w3.org/2001/XMLSchema-instance" xsi:noNamespaceSchemaLocation="http://sumo.dlr.de/xsd/routes_file.xsd">
    <vType id="pt_bus" vClass="bus"/>
    <vType id="pt_tram" vClass="tram"/>
    <vType id="pt_train" vClass="rail"/>
    <vType id="pt_subway" vClass="subway"/>
    <vType id="pt_light_rail" vClass="rail_urban"/>
    <vType id="pt_monorail" vClass="rail_urban"/>
    <vType id="pt_trolleybus" vClass="bus"/>
    <vType id="pt_minibus" vClass="bus"/>
    <vType id="pt_share_taxi" vClass="taxi"/>
    <vType id="pt_aerialway" vClass="cable_car" length="2.5" width="2" personCapacity="4"/>
    <vType id="pt_ferry" vClass="ship"/>
    <!-- Route 862 -->
    <route id="pt_bus_862:0" color="blue" edges="463704558#1 -262148878#6 -262148878#5 -262148878#2 -1210607046#2 -1210607046#0 -413212997#6 -413212997#5 -413212997#4 -413212997#3 -413212997#1 -413212997#0 -1095499050#3 -1095499050#2 -28223397#2 -28223397#0 1095496457 28223395 28223395-AddedOffRampEdge 607175019#1 28223391#0 866663396 866663395 1224012774 28223366 230344362#0 230344361#0 230377854#0 230377854#1 413213003 413237571#1 28376052 231247790 477393513#0 477393513#1 -1036117146#1 -1036117146#0 -10187232#5 -10187232#3 -10187232#2 -10187232#1 -10242245#6 -10242245#5 -10242245#4 -10242245#3 -10242245#2 -10242245#1 -10242245#0 -346646696#5 -346646696#4 -346646696#2 -346646696#1 -346646696#0 -684673702#4 -684673702#3 -684673702#2 -684673702#0 31935425 1310753362#0 346646690#1 346646690#2 346646690#3 346646690#4 346646690#5 541635290#0 541635290#1 541635290#2 541635286#0 541635286#1 541635286#2 541635286#4 346646701 566551617 566551616#0 566551616#1 566551616#2 566551616#3 566551616#4 566551616#5 566551615#0 566551615#1 566551615#2 566551615#3 566551615#4 566551615#5 1237615512#0 1237615512#1 28474650#1 28474650#2 28474650#3 28474650#4 28474650#5 28474650#6 28474650#8 28474650#9 28474650#10 28474650#11 28474650#12 28474650#13 28474650#14 28474650#15 1075957450#1 1075957450#2 45877227#0 45877227#1 45877227#2 45877227#3 45877227#5 45877227#6 45877227#8 45877227#9 45877227#10 45877227#11 45877227#12 45877227#13 45877227#14 45877227#15 45877227#16 45877227#17 45877227#18 45877227#19 1237615511#2 1237615510#1 1237615510#2 1237615510#3 1237615510#4 1237615510#5 1237615510#6 1237615510#7 1237615510#8 1237615510#9 1237615510#10 1237615510#12 1237615510#13 1237615509#1 45877229#0 45877229#1 45877225#1 45877225#2 45877226#0 45877226#1 45877226#2 45877226#3 45877226#4 45877226#5 45877226#6 568219148#0 568219148#1 568219148#2 568219148#3 568219148#4 568219148#5 568219148#6 568219148#7 568219148#8 568219148#9 568219148#10 568219148#11 568219148#12 568219148#13 568219148#14 568219148#15 568219148#16 568219148#17 568219148#18 568219148#19 568219148#20 568219148#21 568219148#22 568219148#23 568219148#24 -36872255#5 -36872255#4 -36872255#3 -36872255#2 -36872255#1 -36872255#0 -600788076#13 -600788076#12 -600788076#11 -600788076#10 -600788076#9 -600788076#7 -600788076#6 -600788076#2 -600788076#0 1133136669 600788073#0 600788021#1 600788038#0 600788038#1 600788020 1133136678#0 -10234805#19 -10234805#17 -10234805#16 -10234805#15 -10234805#14 -10234805#13 -10234805#12 -10234805#11 -10234805#9 -10234805#8 -10234805#7 -10234805#6 -10234805#5 -10234805#4 -10234805#3 -10234805#1 10235902#0 10235902#1 10235902#2 10235902#3 10235902#4 10235902#5 10235902#6 10235902#7 10235902#8 10235902#9 10235902#10 10235902#11 10235902#12 10235902#15 10235902#17 10235902#18 10235902#19 10235902#20 -92350819#5 -92350819#4 -92350819#3 -92350819#2 -92350819#1 -92350819#0 -231247767 -10231865#9 -10231865#8 -10231865#7 -10231865#6 -10231865#5 -10231865#4 -10231865#3 -10231865#2 -10231865#1 -10231865#0 231247777#0 231247777#1 231247777#3 231247777#4 231247777#5 231247777#6 -684690130#20 -684690130#19 -684690130#18 -684690130#17 -684690130#16 -684690130#14 -684690130#13 -684690130#12 -684690130#11 -684690130#10 -684690130#9 -684690130#7 -684690130#6 -684690130#4 -684690130#3 -684690130#2 -684690130#1 -10236172#39 -10236172#38 -10236172#37 -10236172#36 -10236172#33 -10236172#32 -10236172#31 -10236172#30 -10236172#29 -10236172#27 -10236172#25 -10236172#24 -10236172#22 -10236172#21 -10236172#20 -10236172#19 -10236172#18 -10236172#17 -10236172#16 -10236172#15 -10236172#14 -10236172#12 -10236172#11 -10236172#9 -10236172#8 -10236172#6 -10236172#5 -10236172#4 -10236172#3 -10236172#1 10232468#1 10232468#2 10232468#3 10232468#4 10232468#5 10232468#6 10232468#7 10232468#8 10232468#9 10232468#10 10232468#11 10232468#12 599894830#0 599894829#0 599894829#1 599894831#0 599894831#1 599894831#2 599894831#3 599894831#5 599894831#6 599894831#7 599894831#8 599894831#9 599894827#0 599894826#1 599894825#0 599894825#1 909694985#0 909694985#1 909694985#2 599894823#0 599894823#1 599894822#0 231243108#1 231243108#2 231243108#3 231243108#4 231243108#6 231243108#7 231243108#8 231243108#9 231243108#10 231243108#11 231247786#0 231247786#1 231247786#2 1274723858#0 1274723858#1 1274723858#2 1274723858#3 776681829#1 776681829#3 776681829#4 776681829#5 10244330#0 10244330#1 10244330#2 1103204099#0 634114924#1 882705681#0 1103204095#1 231243098#0 231243098#1 231243098#2 231243098#3 231243098#4 231243098#5 231243098#7 231243098#8 231243098#9 231243098#10 231243098#12 231243098#13 231243098#14 231243098#15 231243098#16  231243098#17 231243098#18 231243098#19 231243098#20 231243098#21 231243098#22 231243098#24 231243098#25 231243098#26 1103213889#0 1103213889#1 686158892#1 686158892#2 686158892#3 686158891#1 686158891#2 686158891#3 686158891#4 686158890#0 686158889#1 80377733#1 80377733#2 80377733#3 10243486#0 10243486#1 10243486#2 10243486#3 10243486#4 10243486#5 10243486#6 10243486#7 10243486#8 10243486#9 10243486#10 10243486#11 686158292 686158290 686158296#1 686158289#0 -599894827#0 -599894831#9 -599894831#8 -599894831#7 -599894831#6 -599894831#5 -599894831#3 -599894831#2 -599894831#1 -599894831#0 -599894829#1 -599894829#0 -599894830#0 -10232468#12 -10232468#11 -10232468#10 -10232468#9 -10232468#8 -10232468#7 -10232468#6 -10232468#5 -10232468#4 -10232468#3 -10232468#2 -10232468#1 10236172#1 10236172#3 10236172#4 10236172#5 10236172#6 10236172#8 10236172#9 10236172#11 10236172#12 10236172#14 10236172#15 10236172#16 10236172#17 10236172#18 10236172#19 10236172#20 10236172#21 10236172#22 10236172#24 10236172#25 10236172#27 10236172#29 10236172#30 10236172#31 10236172#32 10236172#33 10236172#36 10236172#37 10236172#38 10236172#39 684690130#1 684690130#2 684690130#3 684690130#4 684690130#6 684690130#7 684690130#9 684690130#10 684690130#11 684690130#12 684690130#13 684690130#14 684690130#16 684690130#17 684690130#18 684690130#19 684690130#20 -231247777#6 -231247777#5 -231247777#4 -231247777#3 -231247777#1 -231247777#0 10231865#0 10231865#1 10231865#2 10231865#3 10231865#4 10231865#5 10231865#6 10231865#7 10231865#8 10231865#9 231247767 92350819#0 92350819#1 92350819#2 92350819#3 92350819#4 92350819#5 -10235902#20 -10235902#19 -10235902#18 -10235902#17 -10235902#15 -10235902#12 -10235902#11 -10235902#10 -10235902#9 -10235902#8 -10235902#7 -10235902#6 -10235902#5 -10235902#4 -10235902#3 -10235902#2 -10235902#1 -10235902#0 10234805#1 10234805#3  10234805#4 10234805#5 10234805#6 10234805#7 10234805#8 10234805#9 10234805#11 10234805#12 10234805#13 10234805#14 10234805#15 10234805#16 10234805#17 10234805#18 1133136668#1 1133136668#2 1133136682 1133136681#0 1133136674#1 1133136674#2 1133136673 600788076#0 600788076#2 600788076#6 600788076#7 600788076#9 600788076#10 600788076#11 600788076#12 600788076#13 36872255#0 36872255#1 36872255#2 36872255#3 36872255#4 36872255#5 -568219148#24 -568219148#23 -568219148#22 -568219148#21 -568219148#20 -568219148#19 -568219148#18 -568219148#17 -568219148#16 -568219148#15 -568219148#14 -568219148#13 -568219148#12 -568219148#11 -568219148#10 -568219148#9 -568219148#8 -568219148#7 -568219148#6 -568219148#5 -568219148#4 -568219148#3 -568219148#2 -568219148#1 -568219148#0 82249845#0 82249845#2 82249845#3 82249845#4 82249845#5 82249845#6 44740447#0 44740447#1 44740447#2 44740447#3 231764120#0 231764120#1 -45877229#1 -45877229#0 -1237615509#1 -1237615510#13 -1237615510#12 -1237615510#10 -1237615510#9 -1237615510#8 -1237615510#7 -1237615510#6 -1237615510#5 -1237615510#4 -1237615510#3 -1237615510#2 -1237615510#1 -1237615510#0 -45877227#19 -45877227#18 -45877227#17 -45877227#16 -45877227#15 -45877227#14 -45877227#13 -45877227#12 -45877227#11 -45877227#10 -45877227#9 -45877227#8 -45877227#6 -45877227#5 -45877227#3 -45877227#2 -45877227#1 -45877227#0 1075957449#0 -28474650#15 -28474650#14 -28474650#13 -28474650#12 -28474650#11 -28474650#10 -28474650#9 -28474650#8 -28474650#6 -28474650#5 -28474650#4 -28474650#3 -28474650#2 -28474650#1 -28474650#0 -1237615512#0 -1237615513#0 -566551615#4 -566551615#3 -566551615#2 -566551615#1 -566551615#0 -566551616#5 -566551616#4 -566551616#3 -566551616#2 -566551616#1 -566551616#0 -566551617 -346646701 -541635286#4 -541635286#2 -541635286#1 -541635286#0 -541635290#2 -541635290#1 -541635290#0 -346646690#5 -346646690#4 -346646690#3 -346646690#2 -346646690#1 -1310753362#0 -31935425 684673702#0 684673702#2 684673702#3 684673702#4 346646696#0 346646696#1 346646696#2 346646696#4 346646696#5 1036428683#1 10242245#1 10242245#2 10242245#3 10242245#4 10242245#5 10242245#6 10187232#1 10187232#2 10187232#3 10187232#5 1036117146#0 1036117146#1 477393511 1030237289 346646681#0 346646681#1 1030561465#0 1030561465#1 28376056#0 28376056#1 230344367#0 230344367#1 413212996 413212995#0 413213007 131702935#0 40664629 866663391 866663389 177427971#0 177427971#1-AddedOnRampEdge 177427971#1 -1095496457 28223397#0 28223397#1 1095499050#1 1095499050#3 413212997#0 413212997#1 413212997#3 413212997#4 413212997#5 413212997#6 1210607046#0 1210607046#1 262148878#1 262148878#5 262148878#6 -463704558#1">
    </route>
    <flow id="pt_bus_862:0" type="pt_bus" route="pt_bus_862:0" begin="132.0" end="3732.0" period="600" line="862:0" >
        <param key="completeness" value="0.50"/>
    </flow>

    <!-- Route 830UX -->
    <route id="pt_bus_830UX" color="green" edges="1225221152#1 463704558#0 463704558#1 -262148878#6 -262148878#5 -262148878#2 -1210607046#2 -1210607046#0 -413212997#6 -413212997#5 -413212997#4 -413212997#3 -413212997#1 -413212997#0 -1095499050#3 -1095499050#2 -28223397#2 -28223397#0 1095496457 28223395 28223395-AddedOffRampEdge 607175019#1 28223391#0 866663396 866663395 1224012774 28223366 230344362#0 230344361#0 230377854#0 230377854#1 28376044 231247790 477393514 413237539 -39255600#8 -39255600#7 -39255600#6 -39255600#5 -39255600#4 -39255600#3 -39255600#1 -39255600#0 28337320#0 28337320#1 684661224#0 684661224#1 39255611#0 39255611#1 39255615#0 39255615#1 882705687#0 882705687#1 882705687#2 882705687#3 882705687#4 882705687#6 882705687#7 1001619396#1 1036894579#0 1036894579#2 1036894579#3 1036894579#4 1036897385#1 1001839206#2 1001839206#3 1001839206#4 1001839206#5 1001839206#7 1001839206#8 1001839206#10 1001839206#12 1001839206#14 1001839206#15 1001839206#16 884914053#2 884914053#3 884914053#5 1031068107#1 1371599490 10244326#0 10244326#1 10244326#2 10244326#3 10244326#4 10244326#5 1031068106#0 1031068106#1 10244332#1 10244332#2 1029175183#0 1029175182#1 1029175184#0 1028561247#1 36322646#0 36322646#1 36322646#2 36322646#3 36322646#4 36322646#6 36322646#7 36322646#8 36322646#9 1028561248#0 -1028561249#0 -413213000#10 -413213000#9 -413213000#7 -413213000#6 -413213000#5 -413213000#4 -413213000#3 -413213000#2 -413213000#1 -413213000#0 -1028561251#1 -1028561252#0 -1028561253#1 -1028561254#0 -1028561250#6 -1028561250#5 -1028561250#4 -1028561250#3 -1028561250#2 -1028561250#0 -1028561255#1 -1029808321#0 -10246981#5 -10246981#4 -10246981#3 -10246981#2 -10246981#0 -1027556526#2 -1027556526#1 -1027556526#0 -1001845742#0 -1029808320 -1027556525 -413213005#8 -413213005#7 -413213005#6 -413213005#3 -413213005#2 -413213005#1 -413213005#0 -684661217#6 -684661217#5 -684661217#4 -684661217#3 -684661217#1 742747169#1 1028129110#1 1001848377#0 1001848377#1 1001848377#2 1001848377#3 1001848377#4 1001848377#5 1001848377#6 1001848377#7 1001848377#8 1001848377#9 1001848377#10 1001848377#11 1001848377#12 1001848377#13 1001848377#14 1001848377#16 1037188591#0 1037188591#1 1037188591#2 1037188591#3 1037188591#5 1037188591#6 1037188591#7 1037188591#8 1037188591#9 1037188591#10 1037188591#12 1037188591#13 1037188591#15 1037188591#16 1028565369#0 1028565369#1 1028565369#2 1028565369#3 1028565369#4 1028565369#5 1028565369#6 1028565369#7 1028565369#8 1028565369#9 1028565369#11 1028129111 741957436 117922003 117922084 1311727921 749991157 749991159 749991160 533097185#0 533097185#1 -533097183#1 -533097183#0 10239709#1 10239709#2 10239709#3 10239709#4 231243761#0 231243761#1 231364512#1 887685004#0 887685004#1 1224483160 684673673#1 1225107993#1 -887685004#1 -887685004#0 -231364512#1 -231243761#1 -231243761#0 -629509913#1 -629509913#0 629509936#0 629509936#1 684673686 684673692 684673690 60747907 684673688 629509917#0 629509917#1 60747905#1 60747905#2 60747905#3 511111348#0 10234457#0 10234457#1 10234457#2 10234457#3 10234457#4 10234457#5 10234457#6 10234457#7 10234457#8 10234457#9 10234457#10 10234457#11 10234457#12 10234457#13 10234457#14 1072819409#0 1072819409#1 1072819409#2 1072819409#3 1072819409#5 1072819408#0 1072819408#1 1072819408#2 1072819408#3 1072819408#4 1072819408#5 1072819408#6 684673704#0 684673704#1 89455789#0 89455789#1 89455789#2 89455789#3 10247300#1 10247300#3 346673013#1 10231782#0 10231782#1 10231782#2 10231782#3 10231782#4 10231782#5 684673720#1 684673720#2 684673720#3 533256826 533256827 280133157 280133165#1 10247162#1 10247162#2 10247162#3 10247162#4 10247162#5 10247162#6 10247162#7 346673010 -684673704#1 -684673704#0 -1072819408#6 -1072819408#5 -1072819408#4 -1072819408#3 -1072819408#2 -1072819408#1 -1072819408#0 887681418#0 887681418#1 -10234457#14 -10234457#13 -10234457#12 -10234457#11 -10234457#10 -10234457#9 -10234457#8 -10234457#7 -10234457#6 -10234457#5 -10234457#4 -10234457#3 -10234457#2 -10234457#1 -10234457#0 -511111348#0 -60747905#3 -60747905#2 -60747905#1 629509938#0 629509938#1 684673706 231243760#0 231243760#1 629509913#0 629509913#1 -10239709#4 -10239709#3 -10239709#2 -10239709#1 -10239709#0 533097183#1 -533097185#1 -533097185#0 -749991160 -749991159 -749991157 -1311727921 -117922084 -36972943 -741957436 1027556523#0 1027556523#1 1001934331#0 1001934331#2 1001934331#3 1001934331#4 1001934331#5 1001934331#6 1001934331#7 1001934331#8 1001934331#9 1001934331#10 1001934331#11 1028565365#0 1028565365#1 1028565365#3 1028565365#4 1028565365#6 1028565365#7 1028565365#8 1028565365#9 1028565365#10 1028565365#11 1028565365#13 1028565365#14 1028565365#15 1028565365#17 742747167#0 742747167#1 742747167#2 1001848378#0 1001848378#1 1001848378#2 1001848378#3 1001848378#4 1001848378#5 1001848378#6 1001848378#7 1001848378#8 1001848378#9 1001848378#10 1001848378#11 1001848378#12 1001848378#13 1001848378#14 684661217#1 684661217#3 684661217#4 684661217#5 684661217#6 413213005#0 413213005#1 413213005#2 413213005#3 413213005#6 413213005#7 413213005#8 1027556525 1029808320 1001845742#0 1027556526#0 1027556526#1 1027556526#2 10246981#0 10246981#2 10246981#3 10246981#4 10246981#5 1029808321#0 1028561255#1 1028561255#2 1028561250#2 1028561250#3 1028561250#4 1028561250#5 1028561250#6 1028561254#0 1028561253#1 1028561252#0 1028561251#1 1028561251#2 413213000#1 413213000#2 413213000#3 413213000#4 413213000#5 413213000#6 413213000#7 413213000#9 413213000#10 1028561249#0 -1028561248#0 -36322646#9 -36322646#8 -36322646#7 -36322646#6 -36322646#4 -36322646#3 -36322646#2 -36322646#1 -36322646#0 -1028561247#1 36322642#1 36322642#4 36322642#5 36322642#6 1029175181#0 -1031068106#1 -1031068106#0 -10244326#5 -10244326#4 -10244326#3 -10244326#2 -10244326#1 -10244326#0 -1371599490 -1031068107#2 1001839200#1 10238291#0 10238291#1 10238291#2 1030226943#0 1030226943#1 413237561#0 413237561#2 1343086010#1 1343086009 1001839214#0 884914055#7 884914055#8 884914055#9 884914055#11 884914055#12 884914055#14 884914055#15 884914055#16 1036897390#1 1036897390#3 1036897390#4 1036897390#5 1036894576 1001839221 1001839223#1 1001839223#2 1001839223#3 1001839223#4 1001839223#5 1001839223#6 882705686#1 -39255615#1 -39255615#0 28337308#1 28337308#2 144350648#0 144350648#1 144350648#2 144350648#3 144350648#4 144350648#5 1027556527 39255599#0 39255599#1 39255599#2 39255600#0 39255600#1 39255600#3 39255600#4 39255600#5 39255600#6 39255600#7 39255600#8 230346378#0 230346378#1 477393511 1030237289 346646681#0 346646681#1 1030561465#0 1030561465#1 28376056#0 28376056#1 230344367#0 230344367#1 413212996 413212995#0 413213007 131702935#0 40664629 866663391 866663389 177427971#0 177427971#1-AddedOnRampEdge 177427971#1 -1095496457 28223397#0 28223397#1 1095499050#1 1095499050#3 413212997#0 413212997#1 413212997#3 413212997#4 413212997#5 413212997#6 1210607046#0 1210607046#1 262148878#1 262148878#5 262148878#6 -463704558#1 -463704558#0 346643179#0 346643179#1 346643179#2 346643179#3 463704557#1">
    </route>
    <flow id="pt_bus_830UX:0" type="pt_bus" route="pt_bus_830UX" begin="132.0" end="3732.0" period="600" line="830UX:0" >
        <param key="completeness" value="0.50"/>
    </flow>

</routes>