<?xml version="1.0" encoding="UTF-8"?>

<!-- generated on 2025-04-09 17:44:21 by Eclipse SUMO netconvert Version 1.22.0
<netconvertConfiguration xmlns:xsi="http://www.w3.org/2001/XMLSchema-instance" xsi:noNamespaceSchemaLocation="http://sumo.dlr.de/xsd/netconvertConfiguration.xsd">

    <input>
        <type-files value="${SUMO_HOME}\data\typemap\osmNetconvert.typ.xml,${SUMO_HOME}\data\typemap\osmNetconvertAerialway.typ.xml"/>
        <osm-files value="osm_bbox.osm.xml.gz"/>
    </input>

    <output>
        <output-file value="osm.net.xml.gz"/>
        <output.street-names value="true"/>
        <output.original-names value="true"/>
        <ptstop-output value="osm_stops.add.xml"/>
        <ptline-output value="osm_ptlines.xml"/>
    </output>

    <projection>
        <proj.utm value="true"/>
    </projection>

    <processing>
        <geometry.remove value="true"/>
        <roundabouts.guess value="true"/>
    </processing>

    <tls_building>
        <tls.discard-simple value="true"/>
        <tls.join value="true"/>
        <tls.guess-signals value="true"/>
        <tls.default-type value="actuated"/>
    </tls_building>

    <ramp_guessing>
        <ramps.guess value="true"/>
    </ramp_guessing>

    <junctions>
        <junctions.join value="true"/>
        <junctions.corner-detail value="5"/>
    </junctions>

    <railway>
        <railway.topology.repair value="true"/>
    </railway>

</netconvertConfiguration>
-->

<additional xmlns:xsi="http://www.w3.org/2001/XMLSchema-instance" xsi:noNamespaceSchemaLocation="http://sumo.dlr.de/xsd/additional_file.xsd">
    <busStop id="-11361052134" name="1270 W @ 780 S" lane="-244437926#0_0" startPos="28.38" endPos="43.38" friendlyPos="true" lines="821 822"/>
    <busStop id="-11377872445" name="Draper Town Center Station (Bay A)" lane="-1226967279#0_0" startPos="35.78" endPos="50.78" friendlyPos="true" lines="871"/>
    <busStop id="-11493019589" name="800 E @ 1169 S" lane="-231243108#9_0" startPos="4.92" endPos="19.92" friendlyPos="true" lines="850"/>
    <busStop id="-11654936773" name="13490 South / 372 West" lane="-346010940#3_0" startPos="158.54" endPos="173.54" friendlyPos="true"/>
    <busStop id="-11654936776" name="220 West / 13051 South" lane="-754530519#1_0" startPos="125.26" endPos="140.26" friendlyPos="true"/>
    <busStop id="-11654936780" name="Vista Station Boulevard / 13465 South" lane="-608198483#1_0" startPos="55.14" endPos="70.14" friendlyPos="true"/>
    <busStop id="-11654936781" name="125 West / 12655 South" lane="-441618074#2_0" startPos="134.68" endPos="149.68" friendlyPos="true"/>
    <busStop id="-11654936783" name="200 West / 13354 South" lane="-790186205#3_0" startPos="83.02" endPos="98.02" friendlyPos="true"/>
    <busStop id="-11654936784" name="IKEA Way / 13268 South" lane="-36316204#2_0" startPos="0.00" endPos="15.00" friendlyPos="true"/>
    <busStop id="-2369125852" name="State Rd @ 1291 W" lane="-82331528#2_0" startPos="0.00" endPos="15.00" friendlyPos="true"/>
    <busStop id="-2369125908" name="Center St @ 585 W" lane="-724266822#4_0" startPos="4.24" endPos="19.24" friendlyPos="true"/>
    <busStop id="-2400947965" name="1600 N @ 525 W" lane="-600788076#0_0" startPos="27.43" endPos="42.43" friendlyPos="true" lines="862"/>
    <busStop id="-2400947970" name="1200 W @ 1575 N" lane="-568219148#24_0" startPos="43.29" endPos="58.29" friendlyPos="true"/>
    <busStop id="-2959472284" name="Wyview Creamery" lane="-1088324289#0_0" startPos="0.00" endPos="1.66" friendlyPos="true"/>
    <busStop id="-3530035888" name="State St @ 860 E (WB)" lane="-231974869#9_0" startPos="41.28" endPos="56.28" friendlyPos="true" lines="850"/>
    <busStop id="-3530106790" name="State St @ 1185 N" lane="-1103213872#0_0" startPos="26.31" endPos="41.31" friendlyPos="true"/>
    <busStop id="-366399825" name="1600 N @ 1035 W" lane="-36872255#0_0" startPos="4.50" endPos="19.50" friendlyPos="true" lines="862"/>
    <busStop id="-366466391" name="1600 N @ 755 W" lane="-600788076#7_0" startPos="53.25" endPos="68.25" friendlyPos="true" lines="862"/>
    <busStop id="-366499660" name="1200 W @ 430 S" lane="-566551615#4_0" startPos="6.36" endPos="21.36" friendlyPos="true"/>
    <busStop id="-4145236908" name="State St @ 1545 N" lane="-229715468#22_0" startPos="2.79" endPos="17.79" friendlyPos="true"/>
    <busStop id="-4145236910" name="State St @ 1369 N" lane="-229715468#10_0" startPos="7.77" endPos="22.77" friendlyPos="true"/>
    <busStop id="-4608150627" name="100 N @ 520 E" lane="-10246516#0_0" startPos="5.62" endPos="20.62" friendlyPos="true"/>
    <busStop id="-6324127493" name="Wilkinson Center" lane="-1077847903#0_0" startPos="12.70" endPos="27.70" friendlyPos="true"/>
    <busStop id="-6343896806" name="450 North (King Henry)" lane="-10239582#12_0" startPos="21.18" endPos="36.18" friendlyPos="true"/>
    <busStop id="-737435777" name="11000 N @ 5800 W" lane="-1225016883_0" startPos="131.64" endPos="146.64" friendlyPos="true"/>
    <busStop id="-737435788" name="11000 N @ 6350 W" lane="-1225016890#1_0" startPos="313.72" endPos="328.72" friendlyPos="true"/>
    <busStop id="-8542122458" name="1300 E @ 12771 S" lane="-346317149#14_0" startPos="0.00" endPos="15.00" friendlyPos="true"/>
    <busStop id="-8542125054" name="State St / 300 W (WB)" lane="-172743649#38_0" startPos="49.95" endPos="64.95" friendlyPos="true" lines="850"/>
    <busStop id="-8542138901" name="100 N @ 95 W" lane="-10233539#6_0" startPos="2.84" endPos="17.84" friendlyPos="true"/>
    <busStop id="-8542141482" name="Ashton Blvd @ 1801 W" lane="-231366549#2_0" startPos="0.00" endPos="15.00" friendlyPos="true"/>
    <busStop id="-8542155516" name="Center St @ 370 E" lane="-608189886#16_0" startPos="5.00" endPos="20.00" friendlyPos="true"/>
    <busStop id="-8542170799" name="State St @ 400 E (WB)" lane="-231764115#13_0" startPos="0.00" endPos="9.44" friendlyPos="true" lines="850"/>
    <busStop id="-8542185743" name="100 E @ 1453 N" lane="-566465492#1_0" startPos="46.78" endPos="61.78" friendlyPos="true"/>
    <busStop id="-8542221102" name="Highway 198 @ 1902 W" lane="-933030945#0_0" startPos="82.18" endPos="97.18" friendlyPos="true"/>
    <busStop id="-8542230766" name="State St @ 1449 S" lane="-684673719#4_0" startPos="0.00" endPos="6.71" friendlyPos="true"/>
    <busStop id="-8542423137" name="UVU Fulton Library (WB)" lane="-346646696#0_0" startPos="13.09" endPos="28.09" friendlyPos="true" lines="862 831"/>
    <busStop id="-8542442230" name="400 N @ 351 E" lane="-10226563#7_0" startPos="17.44" endPos="32.44" friendlyPos="true"/>
    <busStop id="-8542612059" name="3600 W @ 12448 S" lane="-107507748#13_0" startPos="34.80" endPos="49.80" friendlyPos="true"/>
    <busStop id="-8542612060" name="100 W @ 420 S" lane="-97124322#8_0" startPos="13.30" endPos="28.30" friendlyPos="true"/>
    <busStop id="-8542612061" name="Hwy 198 @ 20 S" lane="-933030940_0" startPos="7.22" endPos="22.22" friendlyPos="true" lines="821"/>
    <busStop id="-8542895969" name="1460 N / 1900 W (EB)" lane="-10241074#7_0" startPos="3.34" endPos="18.34" friendlyPos="true"/>
    <busStop id="-8542938978" name="Freedom Blvd @ 1386 N" lane="-1334321128#4_0" startPos="10.22" endPos="25.22" friendlyPos="true"/>
    <busStop id="-8542952483" name="100 N @ 40 E" lane="-1358485924#3_0" startPos="0.00" endPos="1.43" friendlyPos="true"/>
    <busStop id="-8542953531" name="1720 N / 550 W (WB)" lane="-10237309#5_0" startPos="40.26" endPos="55.26" friendlyPos="true"/>
    <busStop id="-8544520371" name="Thanksgiving Station Business Park" lane="-887743950#8_0" startPos="28.31" endPos="43.31" friendlyPos="true"/>
    <busStop id="-8544564428" name="Research Way @ 1241 N" lane="-10231865#1_0" startPos="10.83" endPos="25.83" friendlyPos="true"/>
    <busStop id="-8544564429" name="Research Way @ 1243 N" lane="-10231865#1_0" startPos="6.61" endPos="21.61" friendlyPos="true" lines="862"/>
    <busStop id="-8544571432" name="State St @ Lindon Main St. (NB)" lane="-119006869#6_0" startPos="39.87" endPos="54.87" friendlyPos="true" lines="850"/>
    <busStop id="-8544605769" name="13400 S @ 2360 W" lane="-684787379#3_0" startPos="9.59" endPos="24.59" friendlyPos="true"/>
    <busStop id="-8544774957" name="4000 W @ 12174 S" lane="-820337499#1_0" startPos="12.75" endPos="27.75" friendlyPos="true"/>
    <busStop id="-8544776077" name="1000 S @ 1418 W" lane="-262148878#2_0" startPos="11.59" endPos="26.59" friendlyPos="true" lines="862"/>
    <busStop id="-8544785766" name="State St @ 1532 S" lane="-1103204103#0_0" startPos="0.00" endPos="15.00" friendlyPos="true"/>
    <busStop id="-8544793482" name="Main St @ 326 S" lane="-933026921#0_0" startPos="13.98" endPos="28.98" friendlyPos="true"/>
    <busStop id="-8544805026" name="800 E @ 579 N" lane="-10236172#33_0" startPos="22.58" endPos="37.58" friendlyPos="true" lines="862"/>
    <busStop id="-8547215699" name="1200 S @ 430 W" lane="-39255600#0_0" startPos="0.00" endPos="5.92" friendlyPos="true"/>
    <busStop id="-8547218308" name="State Rd @ 742 S" lane="-682287085#1_0" startPos="110.67" endPos="125.67" friendlyPos="true"/>
    <busStop id="-8547221378" name="2700 W @ 12777 S" lane="-566119615#14_0" startPos="16.48" endPos="31.48" friendlyPos="true"/>
    <busStop id="-8547244957" name="300 W @ 5154 N" lane="-10236359#7_0" startPos="54.69" endPos="69.69" friendlyPos="true"/>
    <busStop id="-8547265319" name="500 E @ 597 S" lane="-684838294_0" startPos="28.20" endPos="43.20" friendlyPos="true"/>
    <busStop id="-8551460894" name="State St @ 1851 S" lane="-1098862378#1_0" startPos="0.00" endPos="15.00" friendlyPos="true" lines="850"/>
    <busStop id="-8551499310" name="Center St @ 381 W" lane="-227602198#8_0" startPos="2.89" endPos="17.89" friendlyPos="true"/>
    <busStop id="-8551523749" name="4000 W @ 12507 S" lane="-681783217#7_0" startPos="20.66" endPos="35.66" friendlyPos="true"/>
    <busStop id="-8551568936" name="400 E @ 245 N" lane="-1300052613#0_0" startPos="0.00" endPos="15.00" friendlyPos="true"/>
    <busStop id="-8551583397" name="Pioneer Road / 700 East (WB)" lane="-10132385#1_0" startPos="11.18" endPos="26.18" friendlyPos="true"/>
    <busStop id="-8551597362" name="University Ave @ 1235 S" lane="-533097177#0_0" startPos="20.30" endPos="35.30" friendlyPos="true" lines="805">
        <access lane="-780731643#0_0" pos="4.55" length="29.05" friendlyPos="1"/>
        <access lane="45055154#7_0" pos="39.80" length="31.46" friendlyPos="1"/>
        <access lane="45055154#8_0" pos="18.57" length="6.90" friendlyPos="1"/>
        <access lane="780731642_0" pos="9.63" length="26.29" friendlyPos="1"/>
        <access lane="780731643#0_0" pos="0.00" length="24.31" friendlyPos="1"/>
    </busStop>
    <busStop id="-8551600916" name="200 W @ 142 N" lane="-727665704#1_0" startPos="43.55" endPos="58.55" friendlyPos="true"/>
    <busStop id="-8552032411" name="800 S @ 1125 W" lane="-541635286#1_0" startPos="2.74" endPos="17.74" friendlyPos="true"/>
    <busStop id="-8552048459" name="Highway 198 @ 502 W" lane="-933030941#1_0" startPos="8.24" endPos="23.24" friendlyPos="true"/>
    <busStop id="-8552049555" name="800 E @ 713 N" lane="-1037870374#1_0" startPos="5.40" endPos="20.40" friendlyPos="true" lines="805"/>
    <busStop id="-8552050219" name="State Rd @ 800 N (NB)" lane="-810638655#1_0" startPos="7.69" endPos="22.69" friendlyPos="true" lines="850"/>
    <busStop id="-8552050331" name="2100 W / 1730 N (SB)" lane="-413237519#3_0" startPos="154.10" endPos="169.10" friendlyPos="true"/>
    <busStop id="-8561087916" name="State St / 1500 N (WB)" lane="-172743649#23_0" startPos="9.01" endPos="24.01" friendlyPos="true" lines="850"/>
    <busStop id="-8561291396" name="2230 N @ 175 W" lane="-10224360#1_0" startPos="0.00" endPos="15.00" friendlyPos="true"/>
    <busStop id="-8561293381" name="1300 W @ 12160 S" lane="-684787399#13_0" startPos="8.05" endPos="23.05" friendlyPos="true"/>
    <busStop id="-8561295198" name="University Ave @ 4181 N" lane="-790916856#0_0" startPos="11.02" endPos="26.02" friendlyPos="true">
        <access lane="-932976219_0" pos="17.67" length="27.41" friendlyPos="1"/>
        <access lane="721386828#1_0" pos="9.73" length="30.81" friendlyPos="1"/>
        <access lane="721386829#0_0" pos="0.00" length="6.14" friendlyPos="1"/>
        <access lane="721386829#1_0" pos="0.00" length="32.25" friendlyPos="1"/>
        <access lane="932976219_0" pos="48.59" length="24.41" friendlyPos="1"/>
    </busStop>
    <busStop id="-8566102185" name="Geneva Rd @ 26 S" lane="-1210607053#0_0" startPos="0.00" endPos="15.00" friendlyPos="true"/>
    <busStop id="-8566123428" name="Redwood Rd @ 13181 S" lane="-1097280753#3_0" startPos="15.74" endPos="30.74" friendlyPos="true"/>
    <busStop id="-8568291204" name="1300 E @ 13297 S" lane="-346317149#36_0" startPos="13.49" endPos="28.49" friendlyPos="true"/>
    <busStop id="-8568334690" name="800 E @ 30 N" lane="-10236163#10_0" startPos="35.24" endPos="50.24" friendlyPos="true"/>
    <busStop id="-8568338145" name="State St @ 131 N" lane="-814302009#1_0" startPos="25.67" endPos="40.67" friendlyPos="true"/>
    <busStop id="-8568343946" name="1200 W @ 1209 N" lane="-568219148#12_0" startPos="42.23" endPos="57.23" friendlyPos="true"/>
    <busStop id="-8568349646" name="800 E / 800 N (SB)" lane="-10236172#39_0" startPos="43.32" endPos="58.32" friendlyPos="true" lines="862"/>
    <busStop id="-8568357594" name="1460 N / 1220 W (EB)" lane="-885055009#7_0" startPos="80.18" endPos="95.18" friendlyPos="true"/>
    <busStop id="-8568368617" name="800 E @ 983 S" lane="-599894822#0_0" startPos="16.82" endPos="31.82" friendlyPos="true" lines="850"/>
    <busStop id="-8568370617" name="1000 S @ 1379 W" lane="-262148878#5_0" startPos="89.45" endPos="104.45" friendlyPos="true"/>
    <busStop id="-8570339851" name="900 E / 450 N (SB)" lane="-864013087_0" startPos="0.00" endPos="10.34" friendlyPos="true"/>
    <busStop id="-8570339852" name="100 W @ 170 S" lane="-97124322#15_0" startPos="50.62" endPos="65.62" friendlyPos="true"/>
    <busStop id="-8570374809" name="900 E @ 575 S" lane="-413237550#10_0" startPos="85.03" endPos="100.03" friendlyPos="true"/>
    <busStop id="-8572443146" name="Mt Timpanogos Blvd @ 899 N" lane="-1341102055#0_0" startPos="212.99" endPos="227.99" friendlyPos="true"/>
    <busStop id="-8572460966" name="Main St @ 1056 S" lane="-933026926_0" startPos="31.51" endPos="46.51" friendlyPos="true"/>
    <busStop id="-8573405535" name="Main St / 1600 S (SB)" lane="-10248521#5_0" startPos="44.52" endPos="59.52" friendlyPos="true"/>
    <busStop id="-8576324957" name="1860 S @ 519 E" lane="-10233281#2_0" startPos="4.43" endPos="19.43" friendlyPos="true"/>
    <busStop id="-8576337203" name="State St @ 785 S" lane="-1103213888#0_0" startPos="1.58" endPos="16.58" friendlyPos="true" lines="850"/>
    <busStop id="-8576351956" name="State St @ 1632 S" lane="-1103204109#0_0" startPos="0.00" endPos="6.85" friendlyPos="true"/>
    <busStop id="-8576369779" name="Redwood Rd @ 13377 S" lane="-1097280752#4_0" startPos="44.18" endPos="59.18" friendlyPos="true"/>
    <busStop id="-8577290573" name="State St @ 183 N" lane="-814302009#5_0" startPos="23.55" endPos="38.55" friendlyPos="true"/>
    <busStop id="-8577295330" name="800 E @ 558 N" lane="-1035171895#3_0" startPos="21.59" endPos="36.59" friendlyPos="true"/>
    <busStop id="-8577305710" name="Pioneer Road / Fort Street (WB)" lane="-1225225153_0" startPos="7.66" endPos="22.66" friendlyPos="true"/>
    <busStop id="-8577305880" name="1600 N @ 567 E" lane="-10235902#18_0" startPos="10.00" endPos="25.00" friendlyPos="true"/>
    <busStop id="-8577326194" name="Ashton Blvd @ 2302 W" lane="-229735423#0_0" startPos="8.54" endPos="23.54" friendlyPos="true"/>
    <busStop id="-8584726315" name="3600 W @ 12907 S" lane="-1263892922_0" startPos="32.16" endPos="47.16" friendlyPos="true"/>
    <busStop id="-8584736832" name="Main St @ 1456 N" lane="-1373544366#2_0" startPos="2.29" endPos="17.29" friendlyPos="true"/>
    <busStop id="-8600782797" name="900 E / 300 N (SB)" lane="-10228265#7_0" startPos="35.32" endPos="50.32" friendlyPos="true"/>
    <busStop id="-8600838999" name="400 S @ 1357 W" lane="-10229824#2_0" startPos="4.80" endPos="19.80" friendlyPos="true"/>
    <busStop id="-8600848947" name="1200 W @ 600 S" lane="-566551615#0_0" startPos="13.64" endPos="28.64" friendlyPos="true"/>
    <busStop id="-8604505796" name="Center St @ 195 W" lane="-227602198#2_0" startPos="0.00" endPos="15.00" friendlyPos="true"/>
    <busStop id="-8604510980" name="State St @ 200 N" lane="-1353184846#3_0" startPos="15.56" endPos="25.56" friendlyPos="true"/>
    <busStop id="-8604560600" name="State St @ 375 N" lane="-1103526531#2_0" startPos="0.56" endPos="15.56" friendlyPos="true"/>
    <busStop id="-8663241603" name="Main St @ 140 S" lane="-933017540#1_0" startPos="4.02" endPos="19.02" friendlyPos="true"/>
    <busStop id="-8663618404" name="13400 S @ 1780 W" lane="-489665542_0" startPos="41.41" endPos="56.41" friendlyPos="true"/>
    <busStop id="-8663619702" name="800 E @ 525 S" lane="-599894831#1_0" startPos="0.00" endPos="15.00" friendlyPos="true"/>
    <busStop id="-8663676048" name="2700 W @ 13395 S" lane="-801714842#2_0" startPos="18.96" endPos="33.96" friendlyPos="true"/>
    <busStop id="-8665698013" name="Main St @ 595 N" lane="-684673718#12_0" startPos="9.24" endPos="24.24" friendlyPos="true"/>
    <busStop id="-8669789982" name="900 N / 800 E (WB)" lane="-10246981#0_0" startPos="28.23" endPos="43.23" friendlyPos="true" lines="831"/>
    <busStop id="-8669810953" name="100 N @ 640 E" lane="-933030954#0_0" startPos="15.05" endPos="30.05" friendlyPos="true"/>
    <busStop id="-8669818545" name="Hwy 198 @ 741 N" lane="-933026942#4_0" startPos="10.54" endPos="25.54" friendlyPos="true"/>
    <busStop id="-8669821743" name="800 E @ 621 S" lane="-599894831#7_0" startPos="129.85" endPos="144.85" friendlyPos="true"/>
    <busStop id="-8669823517" name="State St @ 1049 S" lane="-933008256#4_0" startPos="13.03" endPos="28.03" friendlyPos="true"/>
    <busStop id="-8670290330" name="1200 W @ 1085 N" lane="-568219148#5_0" startPos="0.56" endPos="15.56" friendlyPos="true"/>
    <busStop id="-8670297239" name="1600 N @ 97 W" lane="-10234805#1_0" startPos="27.88" endPos="42.88" friendlyPos="true" lines="862"/>
    <busStop id="-8670310433" name="Center St @ 630 E" lane="-608189886#6_0" startPos="19.30" endPos="34.30" friendlyPos="true"/>
    <busStop id="-8672417470" name="State St @ 148 E" lane="-814301987#13_0" startPos="0.00" endPos="15.00" friendlyPos="true"/>
    <busStop id="-8672425106" name="800 E @ 385 S" lane="-599894830#0_0" startPos="15.22" endPos="30.22" friendlyPos="true"/>
    <busStop id="-8672436480" name="400 S @ 195 E" lane="-684673715#5_0" startPos="20.32" endPos="35.32" friendlyPos="true"/>
    <busStop id="-8674681819" name="1200 W @ 1465 N" lane="-568219148#19_0" startPos="49.87" endPos="64.87" friendlyPos="true"/>
    <busStop id="-8674693708" name="Main St / 1820 S (SB)" lane="-10248521#1_0" startPos="34.74" endPos="49.74" friendlyPos="true"/>
    <busStop id="-8692168166" name="100 N @ 190 E" lane="-10246516#22_0" startPos="27.81" endPos="42.81" friendlyPos="true"/>
    <busStop id="-8692179545" name="Freedom Blvd @ 355 S" lane="-157871220#0_0" startPos="0.00" endPos="15.00" friendlyPos="true"/>
    <busStop id="-8720238659" name="100 E @ 2195 N" lane="-756120683#2_0" startPos="9.35" endPos="24.35" friendlyPos="true"/>
    <busStop id="-8720263128" name="State St @ 765 N" lane="-230356021#2_0" startPos="0.00" endPos="15.00" friendlyPos="true"/>
    <busStop id="-8720267550" name="Main St. @ 1375 N" lane="-933008270#0_0" startPos="30.33" endPos="45.33" friendlyPos="true"/>
    <busStop id="-8720280116" name="2230 N @ 201 E" lane="-10225359#1_0" startPos="12.34" endPos="27.34" friendlyPos="true"/>
    <busStop id="-8720290440" name="Main St @ 480 S" lane="-432599175#7_0" startPos="5.56" endPos="20.56" friendlyPos="true"/>
    <busStop id="-8720293880" name="4800 W @ 10892 N" lane="-228527368#3_0" startPos="26.59" endPos="41.59" friendlyPos="true"/>
    <busStop id="-8720294827" name="Main St / University Pkwy (SB)" lane="-229097623#11_0" startPos="32.89" endPos="47.89" friendlyPos="true" lines="831"/>
    <busStop id="-8730095481" name="13400 S @ 3378 W" lane="-203942593#4_0" startPos="142.80" endPos="157.80" friendlyPos="true"/>
    <busStop id="-8779070649" name="3600 W @ 12151 S" lane="-107507748#2_0" startPos="31.20" endPos="46.20" friendlyPos="true"/>
    <busStop id="-8779090589" name="900 E / 150 S (NB)" lane="-10238463#3_0" startPos="0.00" endPos="15.00" friendlyPos="true"/>
    <busStop id="-8779102844" name="500 W @ 931 N" lane="-231243105#18_0" startPos="10.49" endPos="25.49" friendlyPos="true"/>
    <busStop id="-8779152327" name="1200 W @ 50 S" lane="-28474650#14_0" startPos="42.14" endPos="57.14" friendlyPos="true"/>
    <busStop id="-8780205855" name="1600 N @ 139 E" lane="-10235902#6_0" startPos="5.00" endPos="21.00" friendlyPos="true"/>
    <busStop id="-8783782792" name="Timpanogos Pkwy @ 680 E" lane="-231247767_0" startPos="52.19" endPos="67.19" friendlyPos="true" lines="862"/>
    <busStop id="-8783786816" name="Main St @ 451 W" lane="-1353595025_0" startPos="12.03" endPos="27.03" friendlyPos="true"/>
    <busStop id="-8783823219" name="State St @ 611 N" lane="-1103526525#0_0" startPos="23.00" endPos="35.00" friendlyPos="true"/>
    <busStop id="-8783823220" name="500 W / 500 N" lane="-816689127#0_0" startPos="32.21" endPos="42.21" friendlyPos="true"/>
    <busStop id="-8784145845" name="1430 S / 550 W (EB)" lane="-10236886#4_0" startPos="0.00" endPos="15.00" friendlyPos="true"/>
    <busStop id="-8787362298" name="100 N @ 890 E" lane="-933030953#6_0" startPos="6.86" endPos="21.86" friendlyPos="true"/>
    <busStop id="-8787615473" name="200 W @ 98 S" lane="-10241290#5_0" startPos="13.31" endPos="28.31" friendlyPos="true"/>
    <busStop id="-8790793881" name="1200 W @ 117 N" lane="-45877227#6_0" startPos="10.78" endPos="25.78" friendlyPos="true"/>
    <busStop id="-8790811504" name="13400 S @ 2010 W" lane="-684787379#12_0" startPos="66.10" endPos="81.10" friendlyPos="true"/>
    <busStop id="-8790816146" name="Vestry Rd @ 657 E" lane="-40722823#2_0" startPos="87.82" endPos="102.82" friendlyPos="true"/>
    <busStop id="-8790823509" name="800 E @ 190 N" lane="-10236163#6_0" startPos="12.12" endPos="27.12" friendlyPos="true"/>
    <busStop id="-8790835829" name="1460 N / 1500 W (EB)" lane="-885055011#1_0" startPos="131.22" endPos="146.22" friendlyPos="true"/>
    <busStop id="-8849261098" name="State St @ 100 S (NB)" lane="-1352100039_0" startPos="0.00" endPos="15.00" friendlyPos="true" lines="850"/>
    <busStop id="-8849269922" name="500 W @ 897 S" lane="-1081151280#7_0" startPos="9.93" endPos="24.93" friendlyPos="true" lines="833"/>
    <busStop id="-8849380348" name="University Ave / 960 N (SB)" lane="-932976231#1_0" startPos="0.00" endPos="15.00" friendlyPos="true" lines="831">
        <access lane="1336624624#2_0" pos="26.17" length="9.25" friendlyPos="1"/>
        <access lane="721381803#1_0" pos="91.17" length="43.55" friendlyPos="1"/>
        <access lane="721381804#1_0" pos="0.00" length="49.41" friendlyPos="1"/>
        <access lane="774630401#3_0" pos="288.70" length="45.81" friendlyPos="1"/>
        <access lane="774630401#4_0" pos="3.73" length="43.88" friendlyPos="1"/>
    </busStop>
    <busStop id="-8849388476" name="800 E @ 985 N" lane="-684690130#6_0" startPos="12.44" endPos="27.44" friendlyPos="true" lines="862"/>
    <busStop id="-8849402132" name="Main St @ 300 W (EB)" lane="-769181137#4_0" startPos="5.12" endPos="20.12" friendlyPos="true"/>
    <busStop id="-8849729527" name="State St @ 1390 E" lane="-413241572#1_0" startPos="34.30" endPos="49.30" friendlyPos="true"/>
    <busStop id="-8849754095" name="800 E @ 775 S" lane="-599894831#9_0" startPos="9.15" endPos="24.15" friendlyPos="true"/>
    <busStop id="-8851729296" name="900 E / Center St (SB)" lane="-10228265#0_0" startPos="27.47" endPos="42.47" friendlyPos="true"/>
    <busStop id="-8855639650" name="Sandhill Rd / 1350 S (NB)" lane="-230345099#1_0" startPos="19.74" endPos="34.74" friendlyPos="true"/>
    <busStop id="-8855654505" name="State St @ 199 N" lane="-10237320#10_0" startPos="47.38" endPos="62.38" friendlyPos="true"/>
    <busStop id="-8855659464" name="300 W @ 4984 N" lane="-10226514#5_0" startPos="35.24" endPos="50.24" friendlyPos="true"/>
    <busStop id="-8855662750" name="3600 W @ 13373 S" lane="-1263892925#0_0" startPos="27.22" endPos="42.22" friendlyPos="true"/>
    <busStop id="-8869016085" name="800 S @ 931 W" lane="-1376073308#0_0" startPos="14.42" endPos="29.42" friendlyPos="true"/>
    <busStop id="-8869051099" name="Main St / 1450 S (SB)" lane="-229097623#3_0" startPos="0.00" endPos="9.74" friendlyPos="true"/>
    <busStop id="-8869862102" name="Geneva Road @ 450 S" lane="-1210607051#0_0" startPos="33.56" endPos="48.56" friendlyPos="true"/>
    <busStop id="-8869911047" name="State St @ 371 S" lane="-1103213882#1_0" startPos="6.74" endPos="21.74" friendlyPos="true" lines="850"/>
    <busStop id="-8869926783" name="State St @ 1695 N" lane="-31838249#14_0" startPos="45.88" endPos="60.88" friendlyPos="true"/>
    <busStop id="-8870062512" name="State Rd @ 790 S (NB)" lane="-119006773#3_0" startPos="47.44" endPos="62.44" friendlyPos="true" lines="850"/>
    <busStop id="-8870097968" name="Main St @ 451 S" lane="-619447601#1_0" startPos="12.28" endPos="27.28" friendlyPos="true"/>
    <busStop id="-8870127617" name="Main St @ 1 W" lane="-32878196#1_0" startPos="11.21" endPos="26.21" friendlyPos="true"/>
    <busStop id="-8873332266" name="500 W @ 781 N" lane="-231243105#10_0" startPos="6.71" endPos="21.71" friendlyPos="true"/>
    <busStop id="-8873354151" name="1460 N / Grand Ave (EB)" lane="-1340394993_0" startPos="36.37" endPos="51.37" friendlyPos="true"/>
    <busStop id="-8873356966" name="Freedom Blvd @ 318 N" lane="-727665708#2_0" startPos="11.90" endPos="26.90" friendlyPos="true">
        <access lane="-310894259_0" pos="21.97" length="24.67" friendlyPos="1"/>
        <access lane="10229284#8_0" pos="4.64" length="38.35" friendlyPos="1"/>
        <access lane="310894259_0" pos="34.46" length="19.87" friendlyPos="1"/>
        <access lane="727665705#1_0" pos="43.29" length="30.00" friendlyPos="1"/>
        <access lane="727665706#0_0" pos="21.81" length="4.60" friendlyPos="1"/>
    </busStop>
    <busStop id="-8873358257" name="1600 N @ 695 E" lane="-10235902#20_0" startPos="81.86" endPos="96.86" friendlyPos="true"/>
    <busStop id="-8873362064" name="900 E / 200 N (SB)" lane="-10228265#2_0" startPos="24.61" endPos="39.61" friendlyPos="true"/>
    <busStop id="-8873366835" name="2653 N University Ave" lane="-790916845_0" startPos="18.98" endPos="33.98" friendlyPos="true">
        <access lane="-115822350#1_0" pos="26.39" length="6.95" friendlyPos="1"/>
        <access lane="-774633959#5_0" pos="25.32" length="27.43" friendlyPos="1"/>
        <access lane="115822350#1_0" pos="191.42" length="3.95" friendlyPos="1"/>
        <access lane="721382845#3_0" pos="28.59" length="42.89" friendlyPos="1"/>
        <access lane="774633959#5_0" pos="68.04" length="22.63" friendlyPos="1"/>
    </busStop>
    <busStop id="-8873772574" name="400 E @ 175 S" lane="-10234072#2_0" startPos="17.43" endPos="32.43" friendlyPos="true"/>
    <busStop id="-8873774863" name="Vestry Rd @ 1035 E" lane="-40722823#11_0" startPos="20.98" endPos="35.98" friendlyPos="true"/>
    <busStop id="-8873782804" name="1430 S / Sandhill Rd (EB)" lane="-10236886#6_0" startPos="36.48" endPos="51.48" friendlyPos="true"/>
    <busStop id="-8873790336" name="Triumph Blvd / Ridge Dr (NB)" lane="-548611164#6_0" startPos="19.18" endPos="34.18" friendlyPos="true"/>
    <busStop id="-8877136398" name="State Hwy @ 1150 N" lane="-797917000#7_0" startPos="17.51" endPos="32.51" friendlyPos="true"/>
    <busStop id="-8877427182" name="Main St @ 1115 N" lane="-684673718#33_0" startPos="61.33" endPos="76.33" friendlyPos="true"/>
    <busStop id="-8877811877" name="State St @ 1975 N" lane="-119006832#3_0" startPos="2.92" endPos="17.92" friendlyPos="true"/>
    <busStop id="-8877833898" name="Highway 198 @ 385 N" lane="-933026947#0_0" startPos="0.00" endPos="15.00" friendlyPos="true"/>
    <busStop id="-8877979573" name="1200 W @ 361 N" lane="-45877227#16_0" startPos="5.58" endPos="20.58" friendlyPos="true"/>
    <busStop id="-8877986508" name="Main St @ 150 S (NB)" lane="-684661233#0_0" startPos="0.00" endPos="15.00" friendlyPos="true" lines="850"/>
    <busStop id="-8886445007" name="Mill Rd @ 773 E" lane="-753605890#2_0" startPos="35.38" endPos="50.38" friendlyPos="true"/>
    <busStop id="-8886451184" name="State St @ 500 E (WB)" lane="-231764115#23_0" startPos="0.00" endPos="9.96" friendlyPos="true" lines="850"/>
    <busStop id="-8886452609" name="University Ave / 900 S (NB)" lane="-749991159_0" startPos="0.00" endPos="9.00" friendlyPos="true" lines="850">
        <access lane="-749991158#0_0" pos="0.00" length="15.34" friendlyPos="1"/>
        <access lane="-749991158#1_0" pos="92.30" length="15.79" friendlyPos="1"/>
        <access lane="721380520#1_0" pos="3.63" length="0.11" friendlyPos="1"/>
        <access lane="749991158#0_0" pos="4.44" length="10.70" friendlyPos="1"/>
        <access lane="749991158#1_0" pos="0.00" length="11.33" friendlyPos="1"/>
    </busStop>
    <busStop id="-8886458975" name="12600 S @ 2191 W" lane="-684787421#1_0" startPos="12.35" endPos="27.35" friendlyPos="true"/>
    <busStop id="-8886461645" name="Freedom Blvd / 1950 N (NB)" lane="-346673260#3_0" startPos="125.71" endPos="140.71" friendlyPos="true" lines="831"/>
    <busStop id="-8886469655" name="800 E @ 225 S" lane="-10232468#7_0" startPos="0.00" endPos="15.00" friendlyPos="true"/>