<?xml version="1.0" encoding="UTF-8"?>

<!-- generated on 2025-03-28 20:34:36.952567 by osmWebWizard.py UNKNOWN
<configuration>
    <net-file value="/home/cam/Sumo/2025-03-28-20-32-12/osm.net.xml.gz"/>
    <ptlines-file value="/home/cam/Sumo/2025-03-28-20-32-12/osm_ptlines.xml"/>
    <ptstops-file value="/home/cam/Sumo/2025-03-28-20-32-12/osm_stops.add.xml"/>
    <output-file value="/home/cam/Sumo/2025-03-28-20-32-12/osm_pt.rou.xml"/>
    <stopinfos-file value="/home/cam/Sumo/2025-03-28-20-32-12/stopinfos.xml"/>
    <routes-file value="/home/cam/Sumo/2025-03-28-20-32-12/vehroutes.xml"/>
    <trips-file value="/home/cam/Sumo/2025-03-28-20-32-12/trips.trips.xml"/>
    <min-stops value="0"/>
    <extend-to-fringe value="True"/>
    <random-begin value="True"/>
    <seed value="42"/>
    <ignore-errors value="True"/>
    <vtype-prefix value="pt_"/>
    <verbose value="True"/>
</configuration>
-->

<routes xmlns:xsi="http://www.w3.org/2001/XMLSchema-instance" xsi:noNamespaceSchemaLocation="http://sumo.dlr.de/xsd/routes_file.xsd">
    <vType id="pt_bus" vClass="bus"/>
    <vType id="pt_tram" vClass="tram"/>
    <vType id="pt_train" vClass="rail"/>
    <vType id="pt_subway" vClass="subway"/>
    <vType id="pt_light_rail" vClass="rail_urban"/>
    <vType id="pt_monorail" vClass="rail_urban"/>
    <vType id="pt_trolleybus" vClass="bus"/>
    <vType id="pt_minibus" vClass="bus"/>
    <vType id="pt_share_taxi" vClass="taxi"/>
    <vType id="pt_aerialway" vClass="cable_car" length="2.5" width="2" personCapacity="4"/>
    <vType id="pt_ferry" vClass="ship"/>
    <!-- Route 862 -->
    <route id="pt_bus_862:0" color="blue" edges="463704558#1 -262148878#6 -262148878#5 -262148878#2 -1210607046#2 -1210607046#0 -413212997#6 -413212997#5 -413212997#4 -413212997#3 -413212997#1 -413212997#0 -1095499050#3 -1095499050#2 -28223397#2 -28223397#0 1095496457 28223395 28223395-AddedOffRampEdge 607175019#1 28223391#0 866663396 866663395 1224012774 28223366 230344362#0 230344361#0 230377854#0 230377854#1 413213003 413237571#1 28376052 231247790 477393513#0 477393513#1 -1036117146#1 -1036117146#0 -10187232#5 -10187232#3 -10187232#2 -10187232#1 -10242245#6 -10242245#5 -10242245#4 -10242245#3 -10242245#2 -10242245#1 -10242245#0 -346646696#5 -346646696#4 -346646696#2 -346646696#1 -346646696#0 -684673702#4 -684673702#3 -684673702#2 -684673702#0 31935425 1310753362#0 346646690#1 346646690#2 346646690#3 346646690#4 346646690#5 541635290#0 541635290#1 541635290#2 541635286#0 541635286#1 541635286#2 541635286#4 346646701 566551617 566551616#0 566551616#1 566551616#2 566551616#3 566551616#4 566551616#5 566551615#0 566551615#1 566551615#2 566551615#3 566551615#4 566551615#5 1237615512#0 1237615512#1 28474650#1 28474650#2 28474650#3 28474650#4 28474650#5 28474650#6 28474650#8 28474650#9 28474650#10 28474650#11 28474650#12 28474650#13 28474650#14 28474650#15 1075957450#1 1075957450#2 45877227#0 45877227#1 45877227#2 45877227#3 45877227#5 45877227#6 45877227#8 45877227#9 45877227#10 45877227#11 45877227#12 45877227#13 45877227#14 45877227#15 45877227#16 45877227#17 45877227#18 45877227#19 1237615511#2 1237615510#1 1237615510#2 1237615510#3 1237615510#4 1237615510#5 1237615510#6 1237615510#7 1237615510#8 1237615510#9 1237615510#10 1237615510#12 1237615510#13 1237615509#1 45877229#0 45877229#1 45877225#1 45877225#2 45877226#0 45877226#1 45877226#2 45877226#3 45877226#4 45877226#5 45877226#6 568219148#0 568219148#1 568219148#2 568219148#3 568219148#4 568219148#5 568219148#6 568219148#7 568219148#8 568219148#9 568219148#10 568219148#11 568219148#12 568219148#13 568219148#14 568219148#15 568219148#16 568219148#17 568219148#18 568219148#19 568219148#20 568219148#21 568219148#22 568219148#23 568219148#24 -36872255#5 -36872255#4 -36872255#3 -36872255#2 -36872255#1 -36872255#0 -600788076#13 -600788076#12 -600788076#11 -600788076#10 -600788076#9 -600788076#7 -600788076#6 -600788076#2 -600788076#0 1133136669 600788073#0 600788021#1 600788038#0 600788038#1 600788020 1133136678#0 -10234805#19 -10234805#17 -10234805#16 -10234805#15 -10234805#14 -10234805#13 -10234805#12 -10234805#11 -10234805#9 -10234805#8 -10234805#7 -10234805#6 -10234805#5 -10234805#4 -10234805#3 -10234805#1 10235902#0 10235902#1 10235902#2 10235902#3 10235902#4 10235902#5 10235902#6 10235902#7 10235902#8 10235902#9 10235902#10 10235902#11 10235902#12 10235902#15 10235902#17 10235902#18 10235902#19 10235902#20 -92350819#5 -92350819#4 -92350819#3 -92350819#2 -92350819#1 -92350819#0 -231247767 -10231865#9 -10231865#8 -10231865#7 -10231865#6 -10231865#5 -10231865#4 -10231865#3 -10231865#2 -10231865#1 -10231865#0 231247777#0 231247777#1 231247777#3 231247777#4 231247777#5 231247777#6 -684690130#20 -684690130#19 -684690130#18 -684690130#17 -684690130#16 -684690130#14 -684690130#13 -684690130#12 -684690130#11 -684690130#10 -684690130#9 -684690130#7 -684690130#6 -684690130#4 -684690130#3 -684690130#2 -684690130#1 -10236172#39 -10236172#38 -10236172#37 -10236172#36 -10236172#33 -10236172#32 -10236172#31 -10236172#30 -10236172#29 -10236172#27 -10236172#25 -10236172#24 -10236172#22 -10236172#21 -10236172#20 -10236172#19 -10236172#18 -10236172#17 -10236172#16 -10236172#15 -10236172#14 -10236172#12 -10236172#11 -10236172#9 -10236172#8 -10236172#6 -10236172#5 -10236172#4 -10236172#3 -10236172#1 10232468#1 10232468#2 10232468#3 10232468#4 10232468#5 10232468#6 10232468#7 10232468#8 10232468#9 10232468#10 10232468#11 10232468#12 599894830#0 599894829#0 599894829#1 599894831#0 599894831#1 599894831#2 599894831#3 599894831#5 599894831#6 599894831#7 599894831#8 599894831#9 599894827#0 599894826#1 599894825#0 599894825#1 909694985#0 909694985#1 909694985#2 599894823#0 599894823#1 599894822#0 231243108#1 231243108#2 231243108#3 231243108#4 231243108#6 231243108#7 231243108#8 231243108#9 231243108#10 231243108#11 231247786#0 231247786#1 231247786#2 1274723858#0 1274723858#1 1274723858#2 1274723858#3 776681829#1 776681829#3 776681829#4 776681829#5 10244330#0 10244330#1 10244330#2 1103204099#0 634114924#1 882705681#0 1103204095#1 231243098#0 231243098#1 231243098#2 231243098#3 231243098#4 231243098#5 231243098#7 231243098#8 231243098#9 231243098#10 231243098#12 231243098#13 231243098#14 231243098#15 231243098#16  231243098#17 231243098#18 231243098#19 231243098#20 231243098#21 231243098#22 231243098#24 231243098#25 231243098#26 1103213889#0 1103213889#1 686158892#1 686158892#2 686158892#3 686158891#1 686158891#2 686158891#3 686158891#4 686158890#0 686158889#1 80377733#1 80377733#2 80377733#3 10243486#0 10243486#1 10243486#2 10243486#3 10243486#4 10243486#5 10243486#6 10243486#7 10243486#8 10243486#9 10243486#10 10243486#11 686158292 686158290 686158296#1 686158289#0 -599894827#0 -599894831#9 -599894831#8 -599894831#7 -599894831#6 -599894831#5 -599894831#3 -599894831#2 -599894831#1 -599894831#0 -599894829#1 -599894829#0 -599894830#0 -10232468#12 -10232468#11 -10232468#10 -10232468#9 -10232468#8 -10232468#7 -10232468#6 -10232468#5 -10232468#4 -10232468#3 -10232468#2 -10232468#1 10236172#1 10236172#3 10236172#4 10236172#5 10236172#6 10236172#8 10236172#9 10236172#11 10236172#12 10236172#14 10236172#15 10236172#16 10236172#17 10236172#18 10236172#19 10236172#20 10236172#21 10236172#22 10236172#24 10236172#25 10236172#27 10236172#29 10236172#30 10236172#31 10236172#32 10236172#33 10236172#36 10236172#37 10236172#38 10236172#39 684690130#1 684690130#2 684690130#3 684690130#4 684690130#6 684690130#7 684690130#9 684690130#10 684690130#11 684690130#12 684690130#13 684690130#14 684690130#16 684690130#17 684690130#18 684690130#19 684690130#20 -231247777#6 -231247777#5 -231247777#4 -231247777#3 -231247777#1 -231247777#0 10231865#0 10231865#1 10231865#2 10231865#3 10231865#4 10231865#5 10231865#6 10231865#7 10231865#8 10231865#9 231247767 92350819#0 92350819#1 92350819#2 92350819#3 92350819#4 92350819#5 -10235902#20 -10235902#19 -10235902#18 -10235902#17 -10235902#15 -10235902#12 -10235902#11 -10235902#10 -10235902#9 -10235902#8 -10235902#7 -10235902#6 -10235902#5 -10235902#4 -10235902#3 -10235902#2 -10235902#1 -10235902#0 10234805#1 10234805#3  10234805#4 10234805#5 10234805#6 10234805#7 10234805#8 10234805#9 10234805#11 10234805#12 10234805#13 10234805#14 10234805#15 10234805#16 10234805#17 10234805#18 1133136668#1 1133136668#2 1133136682 1133136681#0 1133136674#1 1133136674#2 1133136673 600788076#0 600788076#2 600788076#6 600788076#7 600788076#9 600788076#10 600788076#11 600788076#12 600788076#13 36872255#0 36872255#1 36872255#2 36872255#3 36872255#4 36872255#5 -568219148#24 -568219148#23 -568219148#22 -568219148#21 -568219148#20 -568219148#19 -568219148#18 -568219148#17 -568219148#16 -568219148#15 -568219148#14 -568219148#13 -568219148#12 -568219148#11 -568219148#10 -568219148#9 -568219148#8 -568219148#7 -568219148#6 -568219148#5 -568219148#4 -568219148#3 -568219148#2 -568219148#1 -568219148#0 82249845#0 82249845#2 82249845#3 82249845#4 82249845#5 82249845#6 44740447#0 44740447#1 44740447#2 44740447#3 231764120#0 231764120#1 -45877229#1 -45877229#0 -1237615509#1 -1237615510#13 -1237615510#12 -1237615510#10 -1237615510#9 -1237615510#8 -1237615510#7 -1237615510#6 -1237615510#5 -1237615510#4 -1237615510#3 -1237615510#2 -1237615510#1 -1237615510#0 -45877227#19 -45877227#18 -45877227#17 -45877227#16 -45877227#15 -45877227#14 -45877227#13 -45877227#12 -45877227#11 -45877227#10 -45877227#9 -45877227#8 -45877227#6 -45877227#5 -45877227#3 -45877227#2 -45877227#1 -45877227#0 1075957449#0 -28474650#15 -28474650#14 -28474650#13 -28474650#12 -28474650#11 -28474650#10 -28474650#9 -28474650#8 -28474650#6 -28474650#5 -28474650#4 -28474650#3 -28474650#2 -28474650#1 -28474650#0 -1237615512#0 -1237615513#0 -566551615#4 -566551615#3 -566551615#2 -566551615#1 -566551615#0 -566551616#5 -566551616#4 -566551616#3 -566551616#2 -566551616#1 -566551616#0 -566551617 -346646701 -541635286#4 -541635286#2 -541635286#1 -541635286#0 -541635290#2 -541635290#1 -541635290#0 -346646690#5 -346646690#4 -346646690#3 -346646690#2 -346646690#1 -1310753362#0 -31935425 684673702#0 684673702#2 684673702#3 684673702#4 346646696#0 346646696#1 346646696#2 346646696#4 346646696#5 1036428683#1 10242245#1 10242245#2 10242245#3 10242245#4 10242245#5 10242245#6 10187232#1 10187232#2 10187232#3 10187232#5 1036117146#0 1036117146#1 477393511 1030237289 346646681#0 346646681#1 1030561465#0 1030561465#1 28376056#0 28376056#1 230344367#0 230344367#1 413212996 413212995#0 413213007 131702935#0 40664629 866663391 866663389 177427971#0 177427971#1-AddedOnRampEdge 177427971#1 -1095496457 28223397#0 28223397#1 1095499050#1 1095499050#3 413212997#0 413212997#1 413212997#3 413212997#4 413212997#5 413212997#6 1210607046#0 1210607046#1 262148878#1 262148878#5 262148878#6 -463704558#1">
    </route>
    <vehicle id="pt_bus_862:0" type="pt_bus" route="pt_bus_862:0" depart="0"         line="862:0">
        <param key="completeness" value="1"/>
    </vehicle>
    <!-- Route 850 -->
    <route id="pt_bus_850:0" color="blue" edges="684673673#1 1225107993#1 -887685004#1 -887685004#0 -231364512#1 -231243761#1 -231243761#0 -10239709#4 -10239709#3 -10239709#2 -10239709#1 -10239709#0 533097183#1 -533097185#1 -533097185#0 -749991160 -749991159 -749991157 -1311727921 -117922084 -36972943 -741957436 1027556523#0 1027556523#1 1001934332#0 1001934332#1 1030226941#1 1030226941#2 1030226941#3 1030226941#5 845552832#0 845552832#1 845552832#5 845552832#7 741957438#1 10233539#1 10233539#3 10233539#4 10233539#5 10233539#6 10233539#9 10233539#10 10233539#11 10233539#14 10233539#15 10233539#16 10233539#18 10233539#19 10233539#20 10233539#22 10233539#23 10233539#24 10233539#25 10233539#26 1195524524#1 1195524524#2 1195524524#3 1353137340#0 1353137340#1 1353137338#0 1353137338#1 1195524525#0 1195524525#1 1195524525#2 1195524525#3 1195524525#4 1195524522#0 1195524522#1 816689127#0 816689128#1 231243105#0 231243105#1 231243105#2 231243105#3 231243105#4 231243105#6 231243105#7 231243105#8 231243105#9 231243105#10 231243105#13 231243105#14 231243105#15 231243105#16 231243105#17 231243105#18 231243105#19 231243105#21 231243105#22 231243105#23 231243105#24 231243105#25 231243105#26 1029191660 1029191648 1029191652 1029191650#0 1029191646#1 1029191662 1029191663#1 31838218 31838249#1 31838249#3 31838249#5 31838249#6 31838249#7 31838249#8 31838249#9 31838249#10 31838249#11 31838249#12 31838249#13 31838249#14 31838249#17 31838249#18 31838249#19 31838249#22 31838249#23 31838249#24 31838249#25 31838249#26 31838249#27 31838249#28 31838249#29 31838249#30 -1098862378#2 -1098862378#1 -1098862378#0 1098862380#0 1098862380#1 -1098862379#1 -1098862379#0 1103204110#0 1103204110#1 1103204110#2 1103204110#3 1103204110#4 1103204110#6 1103204109#0 1103204109#1 1103204109#2 1103204109#3 -1103204105#3 -1103204105#2 -1103204105#1 -1103204105#0 -1103204104#4 -1103204104#3 -1103204104#1 -1103204104#0 1103204103#0 1103204103#1 -1103204102#1 -1103204102#0 -1103204101#2 -1103204101#1 -1103204101#0 231243107#0 231243107#1 231243107#2 231243107#3 634114932#0 634114932#1 634114932#2 684673674#0 1036897386#1 684673675#1 684673675#2 684673675#4 684673675#5 684673675#6 1274723860#1 1274723860#2 1274723860#3 -231247786#2 -231247786#1 -231247786#0 -231243108#11 -231243108#10 -231243108#9 -231243108#8 -231243108#7 -231243108#6 -231243108#4 -231243108#3 -231243108#2 -231243108#1 -599894822#0 -599894823#1 -599894823#0 909694983 599894824 909694984 -599894825#1 -599894825#0 -599894826#1 -686158289#0 -686158296#1 -686158296#0 -686158292 -10243486#11 -10243486#10 -10243486#9 -10243486#8 -10243486#7 -10243486#6 -10243486#5 -10243486#4 -10243486#3 -10243486#2 -10243486#1 -10243486#0 -80377733#3 -80377733#2 -80377733#1 -80377733#0 -686158890#0 -686158891#4 -686158891#3 -686158891#2 -686158891#1 -686158891#0 -686158892#2 -686158892#1 -1103213888#1 -1103213888#0 -1352266817#4 -1352266817#3 -1352266817#2 -1352266817#1 -1352266817#0 -1352266818 -919107643#21 -919107643#20 -919107643#19 -919107643#18 -919107643#16 -919107643#15 -919107643#14 -919107643#13 -919107643#12 -919107643#11 -919107643#9 -919107643#8 -919107643#7 -919107643#5 -919107643#4 -919107643#3 -919107643#2 -919107643#1 -919107643#0 -1103213886#2 -1103213886#1 -1103213882#1 -1103213882#0 -1103213887#13 -1103213887#12 -1103213887#11 -1103213887#10 -1103213887#9 -1103213887#8 -1103213887#7 -1103213887#6 -1103213887#5 -1103213887#4 -1103213887#3 -1103213887#2 -1103213887#1 -1103213887#0 -1352267895#1 -1352267895#0 -1352267894#3 -1352267894#2 -1352267894#1 -1352267894#0 -919105985 -1352100039 -10226995 634119792#0 634119792#1 1098897323#1 634119795 1103213881#0 1103213881#1 1103213881#2 1238173117#0 1238173117#1 1336931743#1 -842663974#15 -842663974#14 -842663974#13 -842663974#12 -842663974#11 -842663974#10 -842663974#9 -842663974#8 -842663974#7 -842663974#6 -842663974#4 -842663974#3 -842663974#2 -842663974#1 -842663974#0 -1103213880#3 -1103213880#2 -1103213880#1 -1103213879#1 -1103213879#0 -1105213813 -1103213876#2 -1103213876#1 -1103213876#0 -842663977#4 -842663977#3 -842663977#2 -842663977#1 -842663977#0 -842663976 -842663978 -10237317#14 -10237317#13 -10237317#12 -10237317#11 -10237317#10 -10237317#9 -10237317#8 -10237317#7 -10237317#6 -10237317#5 -10237317#4 -10237317#3 -10237317#2 -10237317#1 -10237317#0 229715478#0 229715478#1 229715478#2 1369962153#1 1369962153#2 1103213873#0 1103213873#1 1103213873#2 1103213873#3 1103213873#5 1103213873#6 1103213873#7 1103213873#8 1103213873#9 1103213873#10 1103213873#11 1103213873#12 1103213873#13 1103213873#14 1103213873#15 1103213873#16 1103213873#19 1103213873#20 1103213873#21 1103213873#23 1103213873#24 1103213873#25 1103213873#26 1103213872#0 1103213868#1 1103213868#2 229715468#0 229715468#1 229715468#2 229715468#4 229715468#5 229715468#6 229715468#7 229715468#8 229715468#9 229715468#10 229715468#11 229715468#13 229715468#14 229715468#15 229715468#16 229715468#17 229715468#18 229715468#20 229715468#21 229715468#22 229715468#23 634107310#0 634107310#1 634107308#1 634107308#2 634107308#3 -634107312#9 -634107312#8 -634107312#7 -634107312#6 -634107312#5 -634107312#4 -634107312#3 -634107312#2 -634107312#1 -634107312#0 1103526540#0 1103526540#1 1103526540#3 119006832#0 119006832#1 119006832#2 119006832#3 -1103526536#1 -1103526536#0 -119006869#9 -119006869#8 -119006869#7 -119006869#6 -119006869#5 -119006869#4 -119006869#3 -119006869#2 -119006869#1 -119006869#0 -10226996#1 -10226996#0 1096252569#0 1096252569#1 1096252569#2 1096252569#3 10237320#0 10237320#1 10237320#3 10237320#4 10237320#5 10237320#6 10237320#8 10237320#9 10237320#10 10237320#11 10237320#12 10237320#13 10237320#14 1103526533#1 1103526533#2 1103526533#3 1103526533#4 1103526533#5 1103526531#0 1103526531#1 1103526531#2 1103526531#3 1103526530#0 1103526530#1 1103526530#2 119006768#0 119006768#1 119006768#2 119006768#3 119006768#4 119006768#5 119006768#6 119006768#7 119006768#8 119006768#9 1214937461#1 1103526527#0 1103526527#1 1103526528#0 1103526528#1 1103526528#2 1103526528#3 1103526525#0 1103526525#1 1103526525#2 230356016#1 230356021#0 230356021#1 230356021#2 230356021#3 230356021#4 -810638655#3 -810638655#2 -810638655#1 -810638655#0 -1103526523#2 -1103526523#0 -119006773#9 -119006773#7 -119006773#6 -119006773#5 -119006773#4 -119006773#3 -119006773#1 -119006773#0 -1103526521#1 -1103526522#0 -1103526518#1 -1103526518#0 -79800401#8 -79800401#7 -79800401#5 -79800401#2 -79800401#1 -79800401#0 1103530675 1103530672#0 1103530678#1 1120287661 1120287660#0 1120287660#1 1120287662 -10248525#2 -10248525#1 -10248525#0 -28801848#3 -28801848#2 -28801848#1 -28801848#0 -684661233#2 -684661233#1 -684661233#0 -231241499#0 10248479#0 10248479#1 10248479#2 10248479#3 10233792#1 10233792#2 10233792#3 10233792#4 227602198#1 227602198#2 227602198#4 227602198#5 227602198#7 227602198#8 227602198#9 227602198#10 724266822#0 724266822#1 724266822#2 724266822#3 724266822#5 749755333 749755332#0 1225020250#0 1225020250#1 1225020251 1225020252 82331528#1 82331528#2 82331528#3 346410603#0 346410603#1 346410603#2 346410603#3 346410603#4 346410603#5 346410603#6 346410603#7 -809890791#1 -231974869#14 -231974869#13 -231974869#12 -231974869#11 -231974869#10 -231974869#9 -231974869#8 -231974869#7 -231974869#6 -231974869#5 -231974869#4 -231974869#3 -231974869#2 -231974869#1 -231974869#0 -82362079#26 -82362079#25 -82362079#24 -82362079#23 -82362079#22 -82362079#21 -82362079#18 -82362079#17 -82362079#16 -82362079#14 -82362079#13 -82362079#12 -82362079#11 -82362079#10 -82362079#8 -82362079#7 -82362079#6 -82362079#5 -82362079#4 -82362079#3 -82362079#2 -231764115#26 -231764115#24 -231764115#23 -231764115#22 -231764115#21 -231764115#20 -231764115#19 -231764115#18 -231764115#17 -231764115#16 -231764115#15 -231764115#14 -231764115#13 -231764115#12 -231764115#11 -231764115#10 -231764115#9 -231764115#8 -231764115#7 -231764115#6 -231764115#3 -231764115#2 -231764115#1 -231764115#0 -1035187442#2 -1035187442#1 -1035187442#0 -1365136404 -1365136403 -10245200 -1201223299 -1270449032#0 -1270449034#2 -1270449034#1 -1270449033#1 -1270449033#0 -10246988#4 -10246988#3 -10246988#1 32878196#1 32878196#2 32878196#3 32878196#4 32878196#5 32878196#6 32878196#7 32878196#8 32878196#9 32878196#10 32878196#11 32878196#13 32878196#14 769181137#0 769181137#1 769181137#4 769181137#5 769181137#6 231241501#1 231241501#2 231241501#3 231241501#4 1353595025 1017770318 1353595026 1017770317#0 809852116#1 809852116#2 809852116#3 814302008 814302009#0 814302009#1 814302009#2 814302009#3 814302009#4 814302009#5 814302009#6 814302007#0 814302030#1 814302030#2 1188525206 1188525207 809860542#1 809860542#2 1188525205 814302025#0 1188525202 809852145#0 809852145#1 809852145#2 809852145#3 814302018#0 1188525201#1 809852126#0 809852126#1 809852126#2 809852129 809852123 809852124#0 809852124#1 814302020 1188525200#0 413241572#0 413241572#1 413241572#2 413241572#3 413241572#4 1188525197#1 1188525197#2 814301988 814301987#0 814301987#1 814301987#2 814301987#3 814301987#4 814301987#5 814301987#6 814301987#8 814301987#9 814301987#10 814301987#11 814301987#13 814301987#14 814301987#15 814301987#16 814301987#19 814301987#20 -172743649#47 -172743649#46 -172743649#45 -172743649#44 -172743649#43 -172743649#42 -172743649#41 -172743649#38 -172743649#36 -172743649#35 -172743649#34 -172743649#33 -172743649#32 -172743649#31 -172743649#29 -172743649#27 -172743649#26 -172743649#24 -172743649#23 -172743649#22 -172743649#20 -172743649#18 -172743649#17 -172743649#15 -172743649#14 -172743649#13 -172743649#12 -172743649#10 -172743649#9 -172743649#8 -172743649#7 -172743649#6 -172743649#5 -172743649#4 -172743649#3 -172743649#2 -172743649#1 -172743649#0 886103370 887746652#0 1035171703#0 886103366#0 886103366#1 1201223304 1201223306#0 1201223306#1 886103367 231366546#0 231366546#1 231366546#2 231366546#3 231366546#4 231366546#5 231366546#6 231366549#0 231366549#1 231366549#2 231366549#3 231366549#4 231366549#6 229735423#0 346479769#1 346479769#3 346479769#4 694192100#0 694192100#1 694192100#2 694192100#3 694192100#4 694192100#5 694192100#6 231250751#0 231250751#1 231250751#2 231250764 231250765 -231250751#2 -231250751#1 -231250751#0 -694192100#6 -694192100#5 -694192100#4 -694192100#3 -694192100#2 -694192100#1 -694192100#0 -346479769#4 -346479769#3 -346479769#1 -229735423#0 -231366549#6 -231366549#4 -231366549#3 -231366549#2 -231366549#1 -231366549#0 -231366546#6 -231366546#5 -231366546#4 -231366546#3 -231366546#2 -231366546#1 -231366546#0 172611583 886103373 886103373-AddedOffRampEdge 886103374#0 886103374#2 1035171705 887743994#0 887743994#1 887743995 172743649#0 172743649#1 172743649#2 172743649#3 172743649#4 172743649#5 172743649#6 172743649#7 172743649#8 172743649#9 172743649#10 172743649#12 172743649#13 172743649#14 172743649#15 172743649#17 172743649#18 172743649#20 172743649#22 172743649#23 172743649#24 172743649#26 172743649#27 172743649#29 172743649#31 172743649#32 172743649#33 172743649#34 172743649#35 172743649#36 172743649#38 172743649#41 172743649#42 172743649#43 172743649#44 172743649#45 172743649#46 172743649#47 -814301987#20 -814301987#19 -814301987#16 -814301987#15 -814301987#14 -814301987#13 -814301987#11 -814301987#10 -814301987#9 -814301987#8 -814301987#6 -814301987#5 -814301987#4 -814301987#3 -814301987#2 -814301987#1 -814301987#0 -814301988 1188521676#0 1188521676#1 1188521676#2 -413241572#4 -413241572#3 -413241572#2 -413241572#1 -413241572#0 -1188525200#1 -684661227#1 -809852124#1 -809852124#0 -809852123 -809852129 -809852126#2 -809852126#1 -809852126#0 -1188525201#2 -814302018#1 -809852145#3 -809852145#2 -809852145#1 -809852145#0 -1188525202 -814302025#0 -1188525205 -809860542#2 -809860542#1 -809860542#0 -1188525206 -814302030#2 -814302030#1 -814302007#0 -814302009#6 -814302009#5 -814302009#4 -814302009#3 -814302009#2 -814302009#1 -814302009#0 814302017#1 809852113 809852117#0 -1017770317#1 -1353595026 -1017770318 -1353595025 -231241501#4 -231241501#3 -231241501#2 -231241501#1 -769181137#6 -769181137#5 -769181137#4 -769181137#1 -769181137#0 -32878196#14 -32878196#13 -32878196#11 -32878196#10 -32878196#9 -32878196#8 -32878196#7 -32878196#6 -32878196#5 -32878196#4 -32878196#3 -32878196#2 -32878196#1 10246988#1 10246988#3 10246988#4 1270449033#0 1270449033#1 1270449034#1 1270449034#2 1270449032#0 1270449032#1 10245200 1365136403 1365136404 1035187442#0 1035187442#1 1035187442#2 231764115#0 231764115#1 231764115#2 231764115#3 231764115#6 231764115#7 231764115#8 231764115#9 231764115#10 231764115#11 231764115#12 231764115#13 231764115#14 231764115#15 231764115#16 231764115#17 231764115#18 231764115#19 231764115#20 231764115#21 231764115#22 231764115#23 231764115#24 231764115#25 82362079#1 82362079#3 82362079#4 82362079#5 82362079#6 82362079#7 82362079#8 82362079#10 82362079#11 82362079#12 82362079#13 82362079#14 82362079#16 82362079#17 82362079#18 82362079#21 82362079#22 82362079#23 82362079#24 82362079#25 82362079#26 231974869#0 231974869#1 231974869#2 231974869#3 231974869#4 231974869#5 231974869#6 231974869#7 231974869#8 231974869#9 231974869#10 231974869#11 231974869#12 231974869#13 231974869#14 809890791#1 809890791#2 -346410603#6 -346410603#5 -346410603#4 -346410603#3 -346410603#2 -346410603#1 -346410603#0 -82331528#3 -82331528#2 -82331528#1 -82331528#0 -1225020251 -1225020250#2 -1225020250#0 941349510#1 941349510#2 -749755333 -724266822#5 -724266822#3 -724266822#2 -724266822#1 -724266822#0 -227602198#10 -227602198#9 -227602198#8 -227602198#7 -227602198#5 -227602198#4 -227602198#2 -227602198#1 -10233792#4 -10233792#3 -10233792#2 -10233792#1 -10248479#3 -10248479#2 -10248479#1 -10248479#0 231241499#0 231241499#1 684661233#1 684661233#2 28801848#0 28801848#1 28801848#2 28801848#3 10248525#0 10248525#1 10248525#2 -1120287662 125265133#0 125265133#1 125265133#2 1103526517#0 1103526517#1 1103526517#2 79800401#0 79800401#1 79800401#2 79800401#5 79800401#7 79800401#8 1103526518#0 1103526518#1 1103526518#2 1103526521#1 119006773#0 119006773#1 119006773#3 119006773#4 119006773#5 119006773#6 119006773#7 119006773#9 1214937460 1103526523#2 810638655#0 810638655#1 810638655#2 810638655#3 -230356021#4 -230356021#3 -230356021#2 -230356021#1 -230356021#0 -230356016#1 -1103526525#2 -1103526525#1 -1103526525#0 -1103526528#3 -1103526528#2 -1103526528#1 -1103526528#0 -1103526527#1 -1103526527#0 -1214937461#1 -1214937461#0 -119006768#8 -119006768#7 -119006768#6 -119006768#5 -119006768#4 -119006768#3 -119006768#2 -119006768#1 -119006768#0 -1103526530#2 -1103526530#1 -1103526530#0 -1103526531#3 -1103526531#2 -1103526531#1 -1103526531#0 -1103526533#5 -1103526533#4 -1103526533#3 -1103526533#2 -1103526533#1 -1103526533#0 -10237320#13 -10237320#12 -10237320#11 -10237320#10 -10237320#9 -10237320#8 -10237320#6 -10237320#5 -10237320#4 -10237320#3 -10237320#1 -10237320#0 -1096252569#3 -1096252569#2 -1096252569#1 -1096252569#0 10226996#0 10226996#1 1103526535#1 119006869#1 119006869#2 119006869#3 119006869#4 119006869#5 119006869#6 119006869#7 119006869#8 119006869#9 1103526536#0 1103526536#1 -119006832#3 -119006832#2 -119006832#1 -119006832#0 -1103526540#3 -1103526540#1 -1103526540#0 634107312#0 634107312#1 634107312#2 634107312#3 634107312#4 634107312#5 634107312#6 634107312#7 634107312#8 634107312#9 634107309#0 634107309#1 634107311#1 634107311#2 634107311#3 -229715468#23 -229715468#22 -229715468#21 -229715468#20 -229715468#18 -229715468#17 -229715468#16 -229715468#15 -229715468#14 -229715468#13 -229715468#11 -229715468#10 -229715468#9 -229715468#8 -229715468#7 -229715468#6 -229715468#5 -229715468#4 -229715468#2 -229715468#1 -229715468#0 -1103213868#2 -1103213868#1 -1103213872#0 -1103213873#26 -1103213873#25 -1103213873#24 -1103213873#23 -1103213873#21 -1103213873#20 -1103213873#19 -1103213873#16 -1103213873#15 -1103213873#14 -1103213873#13 -1103213873#12 -1103213873#11 -1103213873#10 -1103213873#9 -1103213873#8 -1103213873#7 -1103213873#6 -1103213873#5 -1103213873#3 -1103213873#2 -1103213873#1 -1103213873#0 229715474#0 229715474#1 229715474#2 1103213874#1 1103213874#2 10237317#0 10237317#1 10237317#2 10237317#3 10237317#4 10237317#5 10237317#6 10237317#7 10237317#8 10237317#9 10237317#10 10237317#11 10237317#12 10237317#13 10237317#14 842663978 842663976 842663977#0 842663977#1 842663977#2 842663977#3 842663977#4 1103213876#0 1103213876#1 1103213876#2 1105213813 1103213879#0 1103213879#1 1103213880#1 1103213880#2 1103213880#3 1103213880#4 842663974#1 842663974#2 842663974#3 842663974#4 842663974#6 842663974#7 842663974#8 842663974#9 842663974#10 842663974#11 842663974#12 842663974#13 842663974#14 842663974#15 1336931744 1336931741 1336931739#0 1336931739#1 1336931739#2 634119794#1 634119794#2 1336931738 621193328#0 621193328#1 634119796#1 634119796#2 10226995 1352100039 919105985 1352267894#0 1352267894#1 1352267894#2 1352267894#3 1352267895#0 1352267895#1 1103213887#0 1103213887#1 1103213887#2 1103213887#3 1103213887#4 1103213887#5 1103213887#6 1103213887#7 1103213887#8 1103213887#9 1103213887#10 1103213887#11 1103213887#12 1103213887#13 1103213882#0 1103213882#1 1103213886#1 1103213886#2 919107643#0 919107643#1 919107643#2 919107643#3 919107643#4 919107643#5 919107643#7 919107643#8 919107643#9 919107643#11 919107643#12 919107643#13 919107643#14 919107643#15 919107643#16 919107643#18 919107643#19 919107643#20 919107643#21 1352266818 1352266817#0 1352266817#1 1352266817#2 1352266817#3 1352266817#4 1103213888#0 1103213888#1 686158892#1 686158892#2 686158892#3 686158891#1 686158891#2 686158891#3 686158891#4 686158890#0 686158889#1 80377733#1 80377733#2 80377733#3 10243486#0 10243486#1 10243486#2 10243486#3 10243486#4 10243486#5 10243486#6 10243486#7 10243486#8 10243486#9 10243486#10 10243486#11 686158292 686158290 686158296#1 686158289#0 599894826#1 599894825#0 599894825#1 909694985#0 909694985#1 909694985#2 599894823#0 599894823#1 599894822#0 231243108#1 231243108#2 231243108#3 231243108#4 231243108#6 231243108#7 231243108#8 231243108#9 231243108#10 231243108#11 231247786#0 231247786#1 231247786#2 1274723858#0 1274723858#1 1274723858#2 1274723858#3 776681829#1 776681829#3 776681829#4 776681829#5 10244330#0 10244330#1 10244330#2 1103204099#0 599956969#1 599956969#2 599956969#3 599956969#4 634114927#0 634114927#1 -231243107#3 -231243107#2 -231243107#1 -231243107#0 1103204101#0 1103204101#1 1103204101#2 1103204102#0 1103204102#1 -1103204103#1 -1103204103#0 1103204104#0 1103204104#1 1103204104#3 1103204104#4 1103204105#0 1103204105#1 1103204105#2 1103204105#3 -1103204109#3 -1103204109#2 -1103204109#1 -1103204109#0 -1103204110#6 -1103204110#4 -1103204110#3 -1103204110#2 -1103204110#1 -1103204110#0 1098862379#0 1098862379#1 -1098862380#1 -1098862380#0 1098862378#0 1098862378#1 1098862378#2 1098862378#3 -31838249#29 -31838249#28 -31838249#27 -31838249#26 -31838249#25 -31838249#24 -31838249#23 -31838249#22 -31838249#19 -31838249#18 -31838249#17 -31838249#14 -31838249#13 -31838249#12 -31838249#11 -31838249#10 -31838249#9 -31838249#8 -31838249#7 -31838249#6 -31838249#5 -31838249#3 -31838249#1 -31838249#0 1029191644 992336414#0 992336414#1 1029191667 1029191659 1029191658 1029191657#0 1029191655#1 1029191655#2 1029191655#3 1029191655#