<?xml version="1.0" encoding="UTF-8"?>

<!-- generated on 2025-03-18 15:31:33.206843 by $Id: ptlines2flows.py v1_3_1+0313-ccb31df3eb jakob.erdmann@dlr.de 2019-09-02 13:26:32 +0200 $ v1_20_0+0000-96efa4d36
<configuration>
    <net-file value="/home/cam/sumo/tools/2025-03-18-15-30-49/osm.net.xml.gz"/>
    <ptlines-file value="/home/cam/sumo/tools/2025-03-18-15-30-49/osm_ptlines.xml"/>
    <ptstops-file value="/home/cam/sumo/tools/2025-03-18-15-30-49/osm_stops.add.xml"/>
    <output-file value="/home/cam/sumo/tools/2025-03-18-15-30-49/osm_pt.rou.xml"/>
    <stopinfos-file value="/home/cam/sumo/tools/2025-03-18-15-30-49/stopinfos.xml"/>
    <routes-file value="/home/cam/sumo/tools/2025-03-18-15-30-49/vehroutes.xml"/>
    <trips-file value="/home/cam/sumo/tools/2025-03-18-15-30-49/trips.trips.xml"/>
    <min-stops value="0"/>
    <extend-to-fringe value="True"/>
    <random-begin value="True"/>
    <seed value="42"/>
    <ignore-errors value="True"/>
    <vtype-prefix value="pt_"/>
    <verbose value="True"/>
</configuration>
-->

<routes xmlns:xsi="http://www.w3.org/2001/XMLSchema-instance" xsi:noNamespaceSchemaLocation="http://sumo.dlr.de/xsd/routes_file.xsd">
    <vType id="pt_bus" vClass="bus" speedFactor="0.95"/>
    <vType id="pt_tram" vClass="tram" speedFactor="1.0"/>
    <vType id="pt_train" vClass="rail"/>
    <vType id="pt_subway" vClass="subway"/>
    <vType id="pt_light_rail" vClass="rail_urban"/>
    <vType id="pt_monorail" vClass="rail_urban"/>
    <vType id="pt_trolleybus" vClass="bus" speedFactor="0.95"/>
    <vType id="pt_minibus" vClass="bus" speedFactor="0.95"/>
    <vType id="pt_share_taxi" vClass="taxi" speedFactor="0.95"/>
    <vType id="pt_aerialway" vClass="cable_car" length="2.5" width="2" personCapacity="4"/>
    <vType id="pt_ferry" vClass="ship"/>
    <trip id="0_bus_UVX:0" type="pt_bus" depart="15.0" departLane="best" from="1028561249#0" to="1225221152#1">
        <stop busStop="-9932608377" duration="30"/>  <!-- BYU North Campus -->
    </trip>
    <trip id="1_bus_UVX:1" type="pt_bus" depart="133.0" departLane="best" from="1225221152#1" to="-1028561249#0">
        <stop busStop="9932608366" duration="30"/>  <!-- UVU Station -->
    </trip>
    <trip id="2_bus_831:0" type="pt_bus" depart="165.0" departLane="best" from="1225221152#1" to="-932976224#0">
        <stop busStop="9932608367" duration="30"/>  <!-- UVU Station -->
    </trip>
    <trip id="3_bus_862:0" type="pt_bus" depart="383.0" departLane="best" from="463704557#1" to="776681829#5">
        <stop busStop="9932608366" duration="30"/>  <!-- UVU Station -->
    </trip>
    <trip id="4_train_750:0" type="pt_train" depart="406.0" departLane="best" from="100198877#2" to="100198877#2">
        <stop busStop="3020209235" duration="30"/>  <!-- Orem Central -->
    </trip>
    <trip id="5_bus_831:1" type="pt_bus" depart="441.0" departLane="best" from="932976224#0" to="1225221152#1">
        <stop busStop="9932608366" duration="30"/>  <!-- UVU Station -->
    </trip>
    <trip id="6_train_750:1" type="pt_train" depart="535.0" departLane="best" from="762329402#0" to="-298119548#0">
        <stop busStop="3020209244" duration="30"/>  <!-- Orem Central -->
    </trip>
</routes>
